@<TRIPOS>MOLECULE
LVY
   32    34     1     0     0
SMALL
bcc


@<TRIPOS>ATOM
      1 C1          82.3650    83.3410    72.4990 c6         1 LVY       0.054700
      2 N1          83.2980    84.6570    74.4050 ns         1 LVY      -0.599500
      3 O1          81.9260    82.3880    69.8740 o          1 LVY      -0.602500
      4 C2          81.0490    83.2700    73.3210 c6         1 LVY      -0.089400
      5 N2          82.6960    82.0680    72.0060 n          1 LVY      -0.469800
      6 O2          84.5770    84.2470    72.6890 o          1 LVY      -0.604500
      7 C3          80.8700    84.4260    74.3210 c6         1 LVY      -0.156400
      8 N3          84.4920    78.2230    73.4280 nv         1 LVY      -0.813200
      9 O3          82.0060    85.0330    76.2910 o          1 LVY      -0.602500
     10 C4          82.1050    84.7550    75.0960 c          1 LVY       0.701500
     11 C5          83.4860    84.0730    73.2340 c          1 LVY       0.673500
     12 C6          82.8000    80.2150    70.6860 ca         1 LVY      -0.114600
     13 C7          83.3340    79.8770    71.9520 ca         1 LVY      -0.145300
     14 C8          83.3490    81.1150    72.8840 c5         1 LVY       0.131300
     15 C9          82.2920    81.5900    70.7880 c          1 LVY       0.721100
     16 C10         83.5240    78.1390    69.7760 ca         1 LVY      -0.107000
     17 C11         84.0890    77.8250    71.0190 ca         1 LVY      -0.157000
     18 C12         83.9430    78.6370    72.1820 ca         1 LVY       0.150600
     19 C13         82.8980    79.3560    69.5780 ca         1 LVY      -0.092000
     20 H1          82.2220    84.1440    71.7640 h1         1 LVY       0.113700
     21 H2          84.1320    84.8950    74.9300 hn         1 LVY       0.338500
     22 H3          83.5600    77.4130    68.9690 ha         1 LVY       0.139000
     23 H4          84.7210    76.9480    71.1260 ha         1 LVY       0.137000
     24 H5          82.5470    79.6530    68.5940 ha         1 LVY       0.156000
     25 H6          84.3700    81.4500    73.1030 h1         1 LVY       0.067700
     26 H7          82.9140    80.9700    73.8810 h1         1 LVY       0.067700
     27 H8          84.4480    78.8800    74.1960 hn         1 LVY       0.392300
     28 H9          85.0690    77.3940    73.4890 hn         1 LVY       0.392300
     29 H10         80.9060    82.3890    73.9610 hc         1 LVY       0.068700
     30 H11         80.2290    83.1740    72.5970 hc         1 LVY       0.068700
     31 H12         80.0480    84.1760    75.0050 hc         1 LVY       0.089700
     32 H13         80.6990    85.3480    73.7490 hc         1 LVY       0.089700
@<TRIPOS>BOND
     1     1    20 1   
     2     1    11 1   
     3     1     4 1   
     4     2    21 1   
     5     2    10 1   
     6     3    15 2   
     7     4    29 1   
     8     4     7 1   
     9     5     1 1   
    10     5    14 1   
    11     6    11 2   
    12     7    31 1   
    13     7    10 1   
    14     8    28 1   
    15     8    27 1   
    16    10     9 2   
    17    11     2 1   
    18    12    15 1   
    19    12    13 ar  
    20    13    18 ar  
    21    13    14 1   
    22    14    25 1   
    23    14    26 1   
    24    15     5 1   
    25    16    17 ar  
    26    17    23 1   
    27    17    18 ar  
    28    18     8 1   
    29    19    16 ar  
    30    19    12 ar  
    31    22    16 1   
    32    24    19 1   
    33    30     4 1   
    34    32     7 1   
@<TRIPOS>SUBSTRUCTURE
     1 LVY         1 TEMP              0 ****  ****    0 ROOT
