@<TRIPOS>MOLECULE
LVY
   32    34     1     0     0
SMALL
bcc


@<TRIPOS>ATOM
      1 C1          81.4510    75.7510    75.4630 c6         1 LVY       0.052700
      2 N1          82.4190    77.0990    77.3000 ns         1 LVY      -0.599500
      3 O1          80.8650    74.6420    72.8260 o          1 LVY      -0.601500
      4 C2          80.0090    75.9910    76.1350 c6         1 LVY      -0.088400
      5 N2          81.6200    74.3660    75.0440 n          1 LVY      -0.468800
      6 O2          83.8060    76.2630    75.8640 o          1 LVY      -0.597500
      7 C3          79.9930    77.3300    76.8940 c6         1 LVY      -0.156400
      8 N3          83.3010    70.6310    76.3310 nv         1 LVY      -0.817200
      9 O3          81.1490    78.1310    78.8270 o          1 LVY      -0.603500
     10 C4          81.1930    77.5910    77.7850 c          1 LVY       0.701500
     11 C5          82.6690    76.4130    76.2340 c          1 LVY       0.671500
     12 C6          81.6720    72.4960    73.6550 ca         1 LVY      -0.112600
     13 C7          82.3370    72.2180    74.8350 ca         1 LVY      -0.148300
     14 C8          82.3700    73.4610    75.8400 c5         1 LVY       0.131300
     15 C9          81.3520    73.9220    73.7340 c          1 LVY       0.720100
     16 C10         81.8040    70.2440    72.9080 ca         1 LVY      -0.106000
     17 C11         82.3900    69.8370    74.1500 ca         1 LVY      -0.158000
     18 C12         82.6620    70.8500    75.1130 ca         1 LVY       0.155600
     19 C13         81.4300    71.5440    72.6860 ca         1 LVY      -0.094000
     20 H1          81.4310    76.3500    74.5430 h1         1 LVY       0.113700
     21 H2          83.2280    77.2970    77.8770 hn         1 LVY       0.339500
     22 H3          81.7500    69.4840    72.1340 ha         1 LVY       0.139000
     23 H4          82.7850    68.8330    74.2740 ha         1 LVY       0.137000
     24 H5          80.9530    71.7480    71.7320 ha         1 LVY       0.156000
     25 H6          83.4280    73.7430    75.9060 h1         1 LVY       0.066700
     26 H7          81.9830    73.2640    76.8470 h1         1 LVY       0.066700
     27 H8          83.4950    71.3700    76.9930 hn         1 LVY       0.394300
     28 H9          83.3460    69.6900    76.6990 hn         1 LVY       0.394300
     29 H10         79.8780    75.2350    76.9210 hc         1 LVY       0.067200
     30 H11         79.0960    75.8510    75.5410 hc         1 LVY       0.067200
     31 H12         79.0490    77.3780    77.4530 hc         1 LVY       0.088700
     32 H13         79.9390    78.0340    76.0530 hc         1 LVY       0.088700
@<TRIPOS>BOND
     1     1    20 1   
     2     1     4 1   
     3     1    11 1   
     4     2    10 1   
     5     2    21 1   
     6     3    15 2   
     7     4     7 1   
     8     4    29 1   
     9     5     1 1   
    10     5    14 1   
    11     6    11 2   
    12     7    31 1   
    13     7    10 1   
    14     8    28 1   
    15     8    27 1   
    16    10     9 2   
    17    11     2 1   
    18    12    15 1   
    19    12    13 ar  
    20    13    18 ar  
    21    13    14 1   
    22    14    25 1   
    23    14    26 1   
    24    15     5 1   
    25    16    17 ar  
    26    17    23 1   
    27    17    18 ar  
    28    18     8 1   
    29    19    16 ar  
    30    19    12 ar  
    31    22    16 1   
    32    24    19 1   
    33    30     4 1   
    34    32     7 1   
@<TRIPOS>SUBSTRUCTURE
     1 LVY         1 TEMP              0 ****  ****    0 ROOT
