@<TRIPOS>MOLECULE
LVY
   32    34     1     0     0
SMALL
bcc


@<TRIPOS>ATOM
      1 C1          78.7090    72.0180    73.9270 c6         1 LVY       0.052700
      2 N1          79.4190    73.6410    75.7560 ns         1 LVY      -0.599500
      3 O1          78.7970    70.5320    71.4300 o          1 LVY      -0.601500
      4 C2          77.2620    72.0390    74.4810 c6         1 LVY      -0.088400
      5 N2          79.2310    70.6290    73.6810 n          1 LVY      -0.468800
      6 O2          81.0250    72.7100    74.4020 o          1 LVY      -0.597500
      7 C3          77.0580    73.3440    75.2930 c6         1 LVY      -0.156400
      8 N3          79.9900    66.8160    75.7980 nv         1 LVY      -0.817200
      9 O3          77.9990    74.3430    77.2640 o          1 LVY      -0.603500
     10 C4          78.2080    73.7690    76.2360 c          1 LVY       0.701500
     11 C5          79.8090    72.7600    74.7540 c          1 LVY       0.671500
     12 C6          79.3770    68.5760    72.5930 ca         1 LVY      -0.112600
     13 C7          79.6200    68.3580    73.9490 ca         1 LVY      -0.148300
     14 C8          79.6440    69.6130    74.7050 c5         1 LVY       0.131300
     15 C9          79.1440    70.0030    72.4360 c          1 LVY       0.720100
     16 C10         79.4970    66.1650    72.1290 ca         1 LVY      -0.106000
     17 C11         79.8490    65.9700    73.4750 ca         1 LVY      -0.158000
     18 C12         79.7940    67.0230    74.4640 ca         1 LVY       0.155600
     19 C13         79.2170    67.5080    71.6900 ca         1 LVY      -0.094000
     20 H1          78.7370    72.5620    72.9730 h1         1 LVY       0.113700
     21 H2          80.2050    73.9150    76.3340 hn         1 LVY       0.339500
     22 H3          79.3980    65.2370    71.5750 ha         1 LVY       0.139000
     23 H4          80.0370    64.9540    73.8080 ha         1 LVY       0.137000
     24 H5          78.8460    67.7130    70.6900 ha         1 LVY       0.156000
     25 H6          80.6430    69.8780    75.0720 h1         1 LVY       0.066700
     26 H7          78.9120    69.6780    75.5210 h1         1 LVY       0.066700
     27 H8          80.0140    67.5350    76.5090 hn         1 LVY       0.394300
     28 H9          80.0020    65.8550    76.1140 hn         1 LVY       0.394300
     29 H10         77.0430    71.2690    75.2330 hc         1 LVY       0.067200
     30 H11         76.5710    71.7710    73.6710 hc         1 LVY       0.067200
     31 H12         76.1330    73.3490    75.8860 hc         1 LVY       0.088700
     32 H13         76.9790    74.2160    74.6320 hc         1 LVY       0.088700
@<TRIPOS>BOND
     1     1    20 1   
     2     1     4 1   
     3     1    11 1   
     4     2    10 1   
     5     2    21 1   
     6     3    15 2   
     7     4    29 1   
     8     4     7 1   
     9     5     1 1   
    10     5    14 1   
    11     6    11 2   
    12     7    31 1   
    13     7    10 1   
    14     8    28 1   
    15     8    27 1   
    16    10     9 2   
    17    11     2 1   
    18    12    13 ar  
    19    13    18 ar  
    20    13    14 1   
    21    14    25 1   
    22    14    26 1   
    23    15    12 1   
    24    15     5 1   
    25    16    17 ar  
    26    17    23 1   
    27    17    18 ar  
    28    18     8 1   
    29    19    16 ar  
    30    19    12 ar  
    31    22    16 1   
    32    24    19 1   
    33    30     4 1   
    34    32     7 1   
@<TRIPOS>SUBSTRUCTURE
     1 LVY         1 TEMP              0 ****  ****    0 ROOT
