@<TRIPOS>MOLECULE
LVY
   32    34     1     0     0
SMALL
bcc


@<TRIPOS>ATOM
      1 C1          78.5080    73.3330    75.3880 c6         1 LVY       0.052700
      2 N1          79.1950    74.9610    77.0130 ns         1 LVY      -0.599500
      3 O1          78.5430    72.2160    72.6650 o          1 LVY      -0.601500
      4 C2          77.1430    73.3120    76.2340 c6         1 LVY      -0.088400
      5 N2          78.8120    71.9620    74.9320 n          1 LVY      -0.468800
      6 O2          80.8310    74.1210    75.6550 o          1 LVY      -0.597500
      7 C3          76.7470    74.7190    76.7600 c6         1 LVY      -0.156400
      8 N3          79.5720    67.8760    76.4860 nv         1 LVY      -0.817200
      9 O3          77.7800    76.0500    78.4710 o          1 LVY      -0.603500
     10 C4          77.9170    75.3730    77.4720 c          1 LVY       0.701500
     11 C5          79.6450    74.1080    76.0220 c          1 LVY       0.671500
     12 C6          78.7040    70.0360    73.6810 ca         1 LVY      -0.112600
     13 C7          79.0660    69.6770    74.9750 ca         1 LVY      -0.148300
     14 C8          79.2490    70.8920    75.8660 c5         1 LVY       0.131300
     15 C9          78.6280    71.5210    73.6500 c          1 LVY       0.720100
     16 C10         78.4840    67.7000    73.0940 ca         1 LVY      -0.106000
     17 C11         78.9230    67.3420    74.4030 ca         1 LVY      -0.158000
     18 C12         79.1920    68.3160    75.2810 ca         1 LVY       0.155600
     19 C13         78.4870    69.0540    72.7170 ca         1 LVY      -0.094000
     20 H1          78.3380    73.8660    74.4420 h1         1 LVY       0.113700
     21 H2          79.9700    75.3700    77.5220 hn         1 LVY       0.339500
     22 H3          78.2110    66.8880    72.4260 ha         1 LVY       0.139000
     23 H4          78.9650    66.2740    74.5960 ha         1 LVY       0.137000
     24 H5          78.1820    69.3810    71.7280 ha         1 LVY       0.156000
     25 H6          80.2230    71.1710    76.2850 h1         1 LVY       0.066700
     26 H7          78.5800    70.8600    76.7350 h1         1 LVY       0.066700
     27 H8          79.4820    68.5030    77.2740 hn         1 LVY       0.394300
     28 H9          79.5280    66.8740    76.6110 hn         1 LVY       0.394300
     29 H10         77.2850    72.6240    77.0780 hc         1 LVY       0.067200
     30 H11         76.3570    72.8830    75.6000 hc         1 LVY       0.067200
     31 H12         75.7980    74.9090    77.2780 hc         1 LVY       0.088700
     32 H13         76.7020    75.3560    75.8660 hc         1 LVY       0.088700
@<TRIPOS>BOND
     1     1    20 1   
     2     1    11 1   
     3     1     4 1   
     4     2    10 1   
     5     2    21 1   
     6     3    15 2   
     7     4     7 1   
     8     4    29 1   
     9     5     1 1   
    10     5    14 1   
    11     6    11 2   
    12     7    31 1   
    13     7    10 1   
    14     8    28 1   
    15     8    27 1   
    16    10     9 2   
    17    11     2 1   
    18    12    13 ar  
    19    13    18 ar  
    20    13    14 1   
    21    14    25 1   
    22    14    26 1   
    23    15    12 1   
    24    15     5 1   
    25    16    17 ar  
    26    17    23 1   
    27    17    18 ar  
    28    18     8 1   
    29    19    16 ar  
    30    19    12 ar  
    31    22    16 1   
    32    24    19 1   
    33    30     4 1   
    34    32     7 1   
@<TRIPOS>SUBSTRUCTURE
     1 LVY         1 TEMP              0 ****  ****    0 ROOT
