@<TRIPOS>MOLECULE
LVY
   32    34     1     0     0
SMALL
bcc


@<TRIPOS>ATOM
      1 C1          81.3100    75.4760    75.3150 c6         1 LVY       0.054700
      2 N1          82.3330    76.9890    76.9490 ns         1 LVY      -0.599500
      3 O1          81.2210    74.3370    72.4260 o          1 LVY      -0.602500
      4 C2          79.9350    75.4960    76.0790 c6         1 LVY      -0.089400
      5 N2          81.6390    74.1410    74.8130 n          1 LVY      -0.469800
      6 O2          83.6000    76.2650    75.2700 o          1 LVY      -0.604500
      7 C3          79.8120    76.9100    76.7120 c6         1 LVY      -0.156400
      8 N3          83.4830    70.5110    76.2860 nv         1 LVY      -0.813200
      9 O3          81.1290    78.0080    78.4780 o          1 LVY      -0.602500
     10 C4          81.1580    77.3840    77.4450 c          1 LVY       0.701500
     11 C5          82.4820    76.2980    75.8260 c          1 LVY       0.673500
     12 C6          82.1940    72.3880    73.3500 ca         1 LVY      -0.114600
     13 C7          82.5690    72.0810    74.6850 ca         1 LVY      -0.145300
     14 C8          82.1490    73.1490    75.6510 c5         1 LVY       0.131300
     15 C9          81.6230    73.7280    73.4060 c          1 LVY       0.721100
     16 C10         83.3100    70.3730    72.5560 ca         1 LVY      -0.107000
     17 C11         83.5230    70.0070    73.8910 ca         1 LVY      -0.157000
     18 C12         83.2320    70.8370    74.9330 ca         1 LVY       0.150600
     19 C13         82.5910    71.5130    72.2880 ca         1 LVY      -0.092000
     20 H1          81.1230    76.0880    74.4210 h1         1 LVY       0.113700
     21 H2          83.1320    77.5290    77.2590 hn         1 LVY       0.338500
     22 H3          83.6090    69.6260    71.8270 ha         1 LVY       0.139000
     23 H4          84.0050    69.0630    74.1280 ha         1 LVY       0.137000
     24 H5          82.5350    71.9440    71.2920 ha         1 LVY       0.156000
     25 H6          82.8800    73.5430    76.3690 h1         1 LVY       0.067700
     26 H7          81.3380    72.7540    76.2740 h1         1 LVY       0.067700
     27 H8          83.5620    71.2030    77.0190 hn         1 LVY       0.392300
     28 H9          83.8980    69.6040    76.4550 hn         1 LVY       0.392300
     29 H10         79.9060    74.6930    76.8270 hc         1 LVY       0.068700
     30 H11         79.1950    75.3470    75.2820 hc         1 LVY       0.068700
     31 H12         78.8780    76.9800    77.2830 hc         1 LVY       0.089700
     32 H13         79.9080    77.6010    75.8640 hc         1 LVY       0.089700
@<TRIPOS>BOND
     1     1    20 1   
     2     1    11 1   
     3     1     4 1   
     4     2    21 1   
     5     2    10 1   
     6     3    15 2   
     7     4     7 1   
     8     4    29 1   
     9     5     1 1   
    10     5    14 1   
    11     6    11 2   
    12     7    31 1   
    13     7    10 1   
    14     8    28 1   
    15     8    27 1   
    16    10     9 2   
    17    11     2 1   
    18    12    15 1   
    19    12    13 ar  
    20    13    18 ar  
    21    13    14 1   
    22    14    26 1   
    23    14    25 1   
    24    15     5 1   
    25    16    17 ar  
    26    17    23 1   
    27    17    18 ar  
    28    18     8 1   
    29    19    16 ar  
    30    19    12 ar  
    31    22    16 1   
    32    24    19 1   
    33    30     4 1   
    34    32     7 1   
@<TRIPOS>SUBSTRUCTURE
     1 LVY         1 TEMP              0 ****  ****    0 ROOT
