@<TRIPOS>MOLECULE
LVY
   32    34     1     0     0
SMALL
bcc


@<TRIPOS>ATOM
      1 C1          80.8250    75.7320    75.0610 c6         1 LVY       0.052700
      2 N1          81.7110    76.7580    77.1230 ns         1 LVY      -0.599500
      3 O1          80.5570    74.8540    72.3260 o          1 LVY      -0.601500
      4 C2          79.4810    75.7510    75.7900 c6         1 LVY      -0.088400
      5 N2          80.9500    74.3450    74.5610 n          1 LVY      -0.468800
      6 O2          83.1820    76.1510    75.5550 o          1 LVY      -0.597500
      7 C3          79.3480    76.9910    76.7240 c6         1 LVY      -0.156400
      8 N3          82.1910    70.2610    75.6800 nv         1 LVY      -0.817200
      9 O3          80.5070    77.7810    78.6690 o          1 LVY      -0.603500
     10 C4          80.5360    77.2600    77.5870 c          1 LVY       0.701500
     11 C5          82.0060    76.2920    75.8530 c          1 LVY       0.671500
     12 C6          81.1270    72.6110    73.0410 ca         1 LVY      -0.112600
     13 C7          81.5320    72.1160    74.3040 ca         1 LVY      -0.148300
     14 C8          81.5140    73.1880    75.3990 c5         1 LVY       0.131300
     15 C9          80.7870    74.0580    73.1990 c          1 LVY       0.720100
     16 C10         81.2380    70.3780    72.0540 ca         1 LVY      -0.106000
     17 C11         81.6580    69.8910    73.3070 ca         1 LVY      -0.158000
     18 C12         81.8190    70.7700    74.4480 ca         1 LVY       0.155600
     19 C13         80.8650    71.7590    71.8860 ca         1 LVY      -0.094000
     20 H1          80.6840    76.4880    74.2770 h1         1 LVY       0.113700
     21 H2          82.5700    76.9460    77.6270 hn         1 LVY       0.339500
     22 H3          81.1460    69.6490    71.2540 ha         1 LVY       0.139000
     23 H4          81.8650    68.8270    73.3750 ha         1 LVY       0.137000
     24 H5          80.5440    72.2820    70.9900 ha         1 LVY       0.156000
     25 H6          82.5380    73.4150    75.7230 h1         1 LVY       0.066700
     26 H7          80.8810    72.8070    76.2110 h1         1 LVY       0.066700
     27 H8          81.6690    70.5710    76.4890 hn         1 LVY       0.394300
     28 H9          82.4180    69.2770    75.7400 hn         1 LVY       0.394300
     29 H10         79.3020    74.8280    76.3560 hc         1 LVY       0.067200
     30 H11         78.7290    75.6580    74.9960 hc         1 LVY       0.067200
     31 H12         78.4510    76.8790    77.3480 hc         1 LVY       0.088700
     32 H13         79.1450    77.8870    76.1230 hc         1 LVY       0.088700
@<TRIPOS>BOND
     1     1    20 1   
     2     1     4 1   
     3     1    11 1   
     4     2    10 1   
     5     2    21 1   
     6     3    15 2   
     7     4    29 1   
     8     4     7 1   
     9     5     1 1   
    10     5    14 1   
    11     6    11 2   
    12     7    31 1   
    13     7    10 1   
    14     8    28 1   
    15     8    27 1   
    16    10     9 2   
    17    11     2 1   
    18    12    15 1   
    19    12    13 ar  
    20    13    18 ar  
    21    13    14 1   
    22    14    25 1   
    23    14    26 1   
    24    15     5 1   
    25    16    17 ar  
    26    17    23 1   
    27    17    18 ar  
    28    18     8 1   
    29    19    16 ar  
    30    19    12 ar  
    31    22    16 1   
    32    24    19 1   
    33    30     4 1   
    34    32     7 1   
@<TRIPOS>SUBSTRUCTURE
     1 LVY         1 TEMP              0 ****  ****    0 ROOT
