@<TRIPOS>MOLECULE
LVY
   32    34     1     0     0
SMALL
bcc


@<TRIPOS>ATOM
      1 C1          80.9530    76.9910    75.9600 c6         1 LVY       0.052700
      2 N1          82.0160    78.3120    77.7590 ns         1 LVY      -0.599500
      3 O1          80.7080    76.1350    73.1950 o          1 LVY      -0.601500
      4 C2          79.5800    77.1840    76.6510 c6         1 LVY      -0.088400
      5 N2          81.0050    75.6030    75.4610 n          1 LVY      -0.468800
      6 O2          83.3610    77.2660    76.3430 o          1 LVY      -0.597500
      7 C3          79.5550    78.4830    77.4840 c6         1 LVY      -0.156400
      8 N3          82.7100    71.6840    76.4430 nv         1 LVY      -0.817200
      9 O3          80.8110    79.3650    79.2720 o          1 LVY      -0.603500
     10 C4          80.8330    78.7700    78.2410 c          1 LVY       0.701500
     11 C5          82.2300    77.5050    76.7000 c          1 LVY       0.671500
     12 C6          81.3960    73.9630    73.9390 ca         1 LVY      -0.112600
     13 C7          81.7220    73.5140    75.1940 ca         1 LVY      -0.148300
     14 C8          81.6580    74.5230    76.2790 c5         1 LVY       0.131300
     15 C9          80.9890    75.3500    74.0670 c          1 LVY       0.720100
     16 C10         81.9950    71.9360    72.8530 ca         1 LVY      -0.106000
     17 C11         82.3470    71.4820    74.0890 ca         1 LVY      -0.158000
     18 C12         82.2610    72.2300    75.2900 ca         1 LVY       0.155600
     19 C13         81.4510    73.2540    72.7580 ca         1 LVY      -0.094000
     20 H1          80.8590    77.6780    75.1080 h1         1 LVY       0.113700
     21 H2          82.7690    78.5900    78.3770 hn         1 LVY       0.339500
     22 H3          82.0000    71.2550    72.0070 ha         1 LVY       0.139000
     23 H4          82.7790    70.4870    74.1380 ha         1 LVY       0.137000
     24 H5          81.1420    73.6890    71.8120 ha         1 LVY       0.156000
     25 H6          82.6450    74.7920    76.6760 h1         1 LVY       0.066700
     26 H7          80.8740    74.2280    76.9880 h1         1 LVY       0.066700
     27 H8          82.4940    72.1270    77.3270 hn         1 LVY       0.394300
     28 H9          83.1110    70.7560    76.4480 hn         1 LVY       0.394300
     29 H10         79.3580    76.3350    77.3110 hc         1 LVY       0.067200
     30 H11         78.7760    77.2110    75.9030 hc         1 LVY       0.067200
     31 H12         78.6460    78.5220    78.0990 hc         1 LVY       0.088700
     32 H13         79.4150    79.3880    76.8800 hc         1 LVY       0.088700
@<TRIPOS>BOND
     1     1    20 1   
     2     1     4 1   
     3     1    11 1   
     4     2    10 1   
     5     2    21 1   
     6     3    15 2   
     7     4    29 1   
     8     4     7 1   
     9     5     1 1   
    10     5    14 1   
    11     6    11 2   
    12     7    31 1   
    13     7    10 1   
    14     8    28 1   
    15     8    27 1   
    16    10     9 2   
    17    11     2 1   
    18    12    15 1   
    19    12    13 ar  
    20    13    18 ar  
    21    13    14 1   
    22    14    25 1   
    23    14    26 1   
    24    15     5 1   
    25    16    17 ar  
    26    17    23 1   
    27    17    18 ar  
    28    18     8 1   
    29    19    16 ar  
    30    19    12 ar  
    31    22    16 1   
    32    24    19 1   
    33    30     4 1   
    34    32     7 1   
@<TRIPOS>SUBSTRUCTURE
     1 LVY         1 TEMP              0 ****  ****    0 ROOT
