@<TRIPOS>MOLECULE
LVY
   32    34     1     0     0
SMALL
bcc


@<TRIPOS>ATOM
      1 C1          82.9000    83.6300    74.1480 c6         1 LVY       0.052700
      2 N1          84.0560    84.7750    75.9230 ns         1 LVY      -0.599500
      3 O1          82.0670    82.7410    71.4320 o          1 LVY      -0.601500
      4 C2          81.7480    83.4390    75.1510 c6         1 LVY      -0.088400
      5 N2          83.2010    82.3470    73.4250 n          1 LVY      -0.468800
      6 O2          85.2110    84.3860    74.0780 o          1 LVY      -0.597500
      7 C3          81.5800    84.6840    75.9570 c6         1 LVY      -0.156400
      8 N3          85.1040    78.4190    73.9870 nv         1 LVY      -0.817200
      9 O3          83.1020    85.3050    77.7270 o          1 LVY      -0.603500
     10 C4          82.9670    84.9420    76.6300 c          1 LVY       0.701500
     11 C5          84.2080    84.3010    74.6710 c          1 LVY       0.671500
     12 C6          83.2520    80.7240    71.8340 ca         1 LVY      -0.112600
     13 C7          83.8920    80.2340    72.9360 ca         1 LVY      -0.148300
     14 C8          83.9210    81.2230    74.0610 c5         1 LVY       0.131300
     15 C9          82.7390    82.0560    72.1600 c          1 LVY       0.720100
     16 C10         83.4600    78.6210    70.7270 ca         1 LVY      -0.106000
     17 C11         84.2500    78.1850    71.8020 ca         1 LVY      -0.158000
     18 C12         84.3620    78.9550    72.9540 ca         1 LVY       0.155600
     19 C13         83.0210    79.9480    70.7010 ca         1 LVY      -0.094000
     20 H1          82.5340    84.4360    73.4980 h1         1 LVY       0.113700
     21 H2          84.9170    85.0420    76.3860 hn         1 LVY       0.339500
     22 H3          83.2720    77.9410    69.9010 ha         1 LVY       0.139000
     23 H4          84.6280    77.1670    71.7660 ha         1 LVY       0.137000
     24 H5          82.4210    80.2110    69.8350 ha         1 LVY       0.156000
     25 H6          84.9280    81.6010    74.2730 h1         1 LVY       0.066700
     26 H7          83.4250    80.9530    75.0020 h1         1 LVY       0.066700
     27 H8          85.2030    78.7920    74.9220 hn         1 LVY       0.394300
     28 H9          85.1120    77.4110    73.8990 hn         1 LVY       0.394300
     29 H10         81.9470    82.5880    75.8140 hc         1 LVY       0.067200
     30 H11         80.8070    83.1000    74.6990 hc         1 LVY       0.067200
     31 H12         80.8110    84.6200    76.7380 hc         1 LVY       0.088700
     32 H13         81.4480    85.5180    75.2550 hc         1 LVY       0.088700
@<TRIPOS>BOND
     1     1    20 1   
     2     1    11 1   
     3     1     4 1   
     4     2    21 1   
     5     2    10 1   
     6     3    15 2   
     7     4    29 1   
     8     4     7 1   
     9     5    14 1   
    10     5     1 1   
    11     6    11 2   
    12     7    10 1   
    13     7    31 1   
    14     8    27 1   
    15    10     9 2   
    16    11     2 1   
    17    12    15 1   
    18    12    13 ar  
    19    13    18 ar  
    20    13    14 1   
    21    14    25 1   
    22    14    26 1   
    23    15     5 1   
    24    16    17 ar  
    25    17    18 ar  
    26    18     8 1   
    27    19    16 ar  
    28    19    12 ar  
    29    22    16 1   
    30    23    17 1   
    31    24    19 1   
    32    28     8 1   
    33    30     4 1   
    34    32     7 1   
@<TRIPOS>SUBSTRUCTURE
     1 LVY         1 TEMP              0 ****  ****    0 ROOT
