@<TRIPOS>MOLECULE
LVY
   32    34     1     0     0
SMALL
bcc


@<TRIPOS>ATOM
      1 C1          82.3460    79.9720    74.4180 c6         1 LVY       0.054700
      2 N1          83.4950    81.2480    76.1680 ns         1 LVY      -0.599500
      3 O1          81.8250    79.1070    71.5240 o          1 LVY      -0.602500
      4 C2          81.2080    79.8790    75.4730 c6         1 LVY      -0.089400
      5 N2          82.6170    78.6890    73.7250 n          1 LVY      -0.469800
      6 O2          84.6780    80.7020    74.3950 o          1 LVY      -0.604500
      7 C3          81.0230    81.1770    76.3340 c6         1 LVY      -0.156400
      8 N3          84.2680    74.8750    74.8360 nv         1 LVY      -0.813200
      9 O3          82.4480    82.1250    78.0060 o          1 LVY      -0.602500
     10 C4          82.3840    81.5950    76.9280 c          1 LVY       0.701500
     11 C5          83.5780    80.7070    74.9530 c          1 LVY       0.673500
     12 C6          82.7670    76.9250    72.1720 ca         1 LVY      -0.114600
     13 C7          83.2540    76.5840    73.4670 ca         1 LVY      -0.145300
     14 C8          83.2050    77.6040    74.5070 c5         1 LVY       0.131300
     15 C9          82.3620    78.3740    72.3650 c          1 LVY       0.721100
     16 C10         83.3220    74.8620    71.1860 ca         1 LVY      -0.107000
     17 C11         83.7660    74.4840    72.5130 ca         1 LVY      -0.157000
     18 C12         83.7590    75.2880    73.6240 ca         1 LVY       0.150600
     19 C13         82.7080    76.1030    71.0540 ca         1 LVY      -0.092000
     20 H1          81.9980    80.6230    73.6050 h1         1 LVY       0.113700
     21 H2          84.4060    81.5060    76.5290 hn         1 LVY       0.338500
     22 H3          83.3880    74.1590    70.3610 ha         1 LVY       0.139000
     23 H4          84.2070    73.4990    72.6380 ha         1 LVY       0.137000
     24 H5          82.3970    76.4750    70.0820 ha         1 LVY       0.156000
     25 H6          84.1840    77.9100    74.8980 h1         1 LVY       0.067700
     26 H7          82.5270    77.4460    75.3550 h1         1 LVY       0.067700
     27 H8          84.3270    75.4790    75.6450 hn         1 LVY       0.392300
     28 H9          84.5780    73.9260    74.9950 hn         1 LVY       0.392300
     29 H10         81.2300    79.0020    76.1330 hc         1 LVY       0.068700
     30 H11         80.2610    79.5840    75.0030 hc         1 LVY       0.068700
     31 H12         80.2410    80.9900    77.0820 hc         1 LVY       0.089700
     32 H13         80.8180    82.0530    75.7040 hc         1 LVY       0.089700
@<TRIPOS>BOND
     1     1    20 1   
     2     1    11 1   
     3     1     4 1   
     4     2    21 1   
     5     2    10 1   
     6     3    15 2   
     7     4    29 1   
     8     4     7 1   
     9     5     1 1   
    10     5    14 1   
    11     6    11 2   
    12     7    10 1   
    13     7    31 1   
    14     8    28 1   
    15     8    27 1   
    16    10     9 2   
    17    11     2 1   
    18    12    15 1   
    19    12    13 ar  
    20    13    18 ar  
    21    13    14 1   
    22    14    25 1   
    23    14    26 1   
    24    15     5 1   
    25    16    17 ar  
    26    17    23 1   
    27    17    18 ar  
    28    18     8 1   
    29    19    16 ar  
    30    19    12 ar  
    31    22    16 1   
    32    24    19 1   
    33    30     4 1   
    34    32     7 1   
@<TRIPOS>SUBSTRUCTURE
     1 LVY         1 TEMP              0 ****  ****    0 ROOT
