@<TRIPOS>MOLECULE
LVY
   32    34     1     0     0
SMALL
bcc


@<TRIPOS>ATOM
      1 C1          82.1310    82.4190    75.7020 c6         1 LVY       0.052700
      2 N1          83.1200    83.7510    77.5020 ns         1 LVY      -0.599500
      3 O1          81.8680    81.1820    72.9580 o          1 LVY      -0.601500
      4 C2          81.0100    82.1730    76.8050 c6         1 LVY      -0.088400
      5 N2          82.5260    81.0810    75.1910 n          1 LVY      -0.468800
      6 O2          84.4490    83.1330    75.9580 o          1 LVY      -0.597500
      7 C3          80.6770    83.3610    77.6930 c6         1 LVY      -0.156400
      8 N3          84.6720    77.5230    76.6320 nv         1 LVY      -0.817200
      9 O3          82.1440    84.1100    79.4910 o          1 LVY      -0.603500
     10 C4          81.9960    83.8490    78.2930 c          1 LVY       0.701500
     11 C5          83.3030    83.1510    76.3730 c          1 LVY       0.671500
     12 C6          82.9360    79.2490    73.8060 ca         1 LVY      -0.112600
     13 C7          83.3520    78.9550    75.0930 ca         1 LVY      -0.148300
     14 C8          83.1800    80.0860    76.0910 c5         1 LVY       0.131300
     15 C9          82.3540    80.6090    73.9150 c          1 LVY       0.720100
     16 C10         83.8940    77.1580    72.9760 ca         1 LVY      -0.106000
     17 C11         84.2610    76.8670    74.2950 ca         1 LVY      -0.158000
     18 C12         84.1430    77.8150    75.3810 ca         1 LVY       0.155600
     19 C13         83.1250    78.3690    72.7040 ca         1 LVY      -0.094000
     20 H1          81.8300    83.0880    74.8850 h1         1 LVY       0.113700
     21 H2          83.9720    83.9600    78.0090 hn         1 LVY       0.339500
     22 H3          84.0350    76.3080    72.3150 ha         1 LVY       0.139000
     23 H4          84.7610    75.9190    74.4690 ha         1 LVY       0.137000
     24 H5          82.7570    78.6140    71.7120 ha         1 LVY       0.156000
     25 H6          84.1100    80.5210    76.4770 h1         1 LVY       0.066700
     26 H7          82.5650    79.6650    76.8970 h1         1 LVY       0.066700
     27 H8          84.5080    78.1650    77.3960 hn         1 LVY       0.394300
     28 H9          84.7430    76.5390    76.8550 hn         1 LVY       0.394300
     29 H10         81.2980    81.2760    77.3690 hc         1 LVY       0.067200
     30 H11         80.0470    81.9260    76.3390 hc         1 LVY       0.067200
     31 H12         79.9230    83.1960    78.4730 hc         1 LVY       0.088700
     32 H13         80.4090    84.2760    77.1480 hc         1 LVY       0.088700
@<TRIPOS>BOND
     1     1    20 1   
     2     1    11 1   
     3     1     4 1   
     4     2    21 1   
     5     2    10 1   
     6     3    15 2   
     7     4    29 1   
     8     4     7 1   
     9     5     1 1   
    10     5    14 1   
    11     6    11 2   
    12     7    10 1   
    13     7    31 1   
    14     8    28 1   
    15     8    27 1   
    16    10     9 2   
    17    11     2 1   
    18    12    15 1   
    19    12    13 ar  
    20    13    18 ar  
    21    13    14 1   
    22    14    25 1   
    23    14    26 1   
    24    15     5 1   
    25    16    17 ar  
    26    17    23 1   
    27    17    18 ar  
    28    18     8 1   
    29    19    16 ar  
    30    19    12 ar  
    31    22    16 1   
    32    24    19 1   
    33    30     4 1   
    34    32     7 1   
@<TRIPOS>SUBSTRUCTURE
     1 LVY         1 TEMP              0 ****  ****    0 ROOT
