@<TRIPOS>MOLECULE
LVY
   32    34     1     0     0
SMALL
bcc


@<TRIPOS>ATOM
      1 C1          80.9710    75.8280    75.4830 c6         1 LVY       0.052700
      2 N1          81.6790    77.0600    77.5510 ns         1 LVY      -0.599500
      3 O1          80.6530    74.6750    72.6760 o          1 LVY      -0.601500
      4 C2          79.5640    75.8850    76.1550 c6         1 LVY      -0.088400
      5 N2          81.1940    74.4450    74.9640 n          1 LVY      -0.468800
      6 O2          83.2560    76.2910    76.2140 o          1 LVY      -0.597500
      7 C3          79.3320    77.0670    77.0040 c6         1 LVY      -0.156400
      8 N3          82.5470    70.6690    76.5420 nv         1 LVY      -0.817200
      9 O3          80.3800    77.7680    79.1340 o          1 LVY      -0.603500
     10 C4          80.4820    77.3350    78.0020 c          1 LVY       0.701500
     11 C5          82.1030    76.3970    76.3860 c          1 LVY       0.671500
     12 C6          81.2230    72.6170    73.6490 ca         1 LVY      -0.112600
     13 C7          81.5660    72.2470    74.9900 ca         1 LVY      -0.148300
     14 C8          81.6090    73.3640    75.9220 c5         1 LVY       0.131300
     15 C9          80.9440    74.0740    73.6590 c          1 LVY       0.720100
     16 C10         81.8190    70.4110    72.8300 ca         1 LVY      -0.106000
     17 C11         82.2520    70.0530    74.1760 ca         1 LVY      -0.158000
     18 C12         82.1250    70.9690    75.2580 ca         1 LVY       0.155600
     19 C13         81.2480    71.6830    72.5910 ca         1 LVY      -0.094000
     20 H1          80.8850    76.5590    74.6680 h1         1 LVY       0.113700
     21 H2          82.4790    77.2770    78.1330 hn         1 LVY       0.339500
     22 H3          81.8570    69.6770    72.0300 ha         1 LVY       0.139000
     23 H4          82.5970    69.0470    74.3940 ha         1 LVY       0.137000
     24 H5          80.9660    71.9900    71.5880 ha         1 LVY       0.156000
     25 H6          82.5330    73.5610    76.4800 h1         1 LVY       0.066700
     26 H7          80.8080    73.1560    76.6420 h1         1 LVY       0.066700
     27 H8          82.4600    71.4340    77.1980 hn         1 LVY       0.394300
     28 H9          82.7080    69.7290    76.8790 hn         1 LVY       0.394300
     29 H10         79.4300    74.9880    76.7730 hc         1 LVY       0.067200
     30 H11         78.7860    75.8990    75.3800 hc         1 LVY       0.067200
     31 H12         78.3360    77.1970    77.4460 hc         1 LVY       0.088700
     32 H13         79.4690    77.9280    76.3370 hc         1 LVY       0.088700
@<TRIPOS>BOND
     1     1    20 1   
     2     1     4 1   
     3     1    11 1   
     4     2    10 1   
     5     2    21 1   
     6     3    15 2   
     7     4    29 1   
     8     4     7 1   
     9     5     1 1   
    10     5    14 1   
    11     6    11 2   
    12     7    31 1   
    13     7    10 1   
    14     8    28 1   
    15     8    27 1   
    16    10     9 2   
    17    11     2 1   
    18    12    15 1   
    19    12    13 ar  
    20    13    18 ar  
    21    13    14 1   
    22    14    25 1   
    23    14    26 1   
    24    15     5 1   
    25    16    17 ar  
    26    17    23 1   
    27    17    18 ar  
    28    18     8 1   
    29    19    16 ar  
    30    19    12 ar  
    31    22    16 1   
    32    24    19 1   
    33    30     4 1   
    34    32     7 1   
@<TRIPOS>SUBSTRUCTURE
     1 LVY         1 TEMP              0 ****  ****    0 ROOT
