@<TRIPOS>MOLECULE
LVY
   32    34     1     0     0
SMALL
bcc


@<TRIPOS>ATOM
      1 C1          81.2180    76.1660    74.8720 c6         1 LVY       0.052700
      2 N1          81.9060    77.3910    76.9250 ns         1 LVY      -0.599500
      3 O1          80.6810    74.6540    72.2900 o          1 LVY      -0.601500
      4 C2          79.7960    76.0270    75.5270 c6         1 LVY      -0.088400
      5 N2          81.6500    74.7430    74.4380 n          1 LVY      -0.468800
      6 O2          83.4280    76.9750    75.3550 o          1 LVY      -0.597500
      7 C3          79.4910    77.2400    76.5160 c6         1 LVY      -0.156400
      8 N3          83.6780    71.0980    75.9450 nv         1 LVY      -0.817200
      9 O3          80.6150    78.2360    78.4310 o          1 LVY      -0.603500
     10 C4          80.6740    77.6790    77.3570 c          1 LVY       0.701500
     11 C5          82.2860    76.9140    75.7140 c          1 LVY       0.671500
     12 C6          81.8800    72.7420    73.1640 ca         1 LVY      -0.112600
     13 C7          82.5130    72.5280    74.4290 ca         1 LVY      -0.148300
     14 C8          82.3550    73.7520    75.3590 c5         1 LVY       0.131300
     15 C9          81.3080    74.1450    73.1980 c          1 LVY       0.720100
     16 C10         82.4380    70.4900    72.4200 ca         1 LVY      -0.106000
     17 C11         83.0420    70.3080    73.7600 ca         1 LVY      -0.158000
     18 C12         83.0410    71.2910    74.7310 ca         1 LVY       0.155600
     19 C13         81.8570    71.7810    72.1440 ca         1 LVY      -0.094000
     20 H1          81.0130    76.7660    73.9750 h1         1 LVY       0.113700
     21 H2          82.6290    77.7230    77.5520 hn         1 LVY       0.339500
     22 H3          82.5570    69.7330    71.6500 ha         1 LVY       0.139000
     23 H4          83.2840    69.2870    74.0420 ha         1 LVY       0.137000
     24 H5          81.2420    71.9610    71.2680 ha         1 LVY       0.156000
     25 H6          83.3140    74.0920    75.7710 h1         1 LVY       0.066700
     26 H7          81.6570    73.5460    76.1810 h1         1 LVY       0.066700
     27 H8          83.6940    71.8240    76.6490 hn         1 LVY       0.394300
     28 H9          83.6780    70.1250    76.2220 hn         1 LVY       0.394300
     29 H10         79.7440    75.0810    76.0820 hc         1 LVY       0.067200
     30 H11         79.1110    75.9230    74.6750 hc         1 LVY       0.067200
     31 H12         78.6580    77.0240    77.1970 hc         1 LVY       0.088700
     32 H13         79.0790    78.0770    75.9380 hc         1 LVY       0.088700
@<TRIPOS>BOND
     1     1    20 1   
     2     1     4 1   
     3     1    11 1   
     4     2    10 1   
     5     2    21 1   
     6     3    15 2   
     7     4    29 1   
     8     4     7 1   
     9     5     1 1   
    10     5    14 1   
    11     6    11 2   
    12     7    31 1   
    13     7    10 1   
    14     8    28 1   
    15     8    27 1   
    16    10     9 2   
    17    11     2 1   
    18    12    15 1   
    19    12    13 ar  
    20    13    18 ar  
    21    13    14 1   
    22    14    25 1   
    23    14    26 1   
    24    15     5 1   
    25    16    17 ar  
    26    17    23 1   
    27    17    18 ar  
    28    18     8 1   
    29    19    16 ar  
    30    19    12 ar  
    31    22    16 1   
    32    24    19 1   
    33    30     4 1   
    34    32     7 1   
@<TRIPOS>SUBSTRUCTURE
     1 LVY         1 TEMP              0 ****  ****    0 ROOT
