@<TRIPOS>MOLECULE
LVY
   32    34     1     0     0
SMALL
bcc


@<TRIPOS>ATOM
      1 C1          79.3480    73.2500    75.2960 c6         1 LVY       0.054700
      2 N1          79.9040    74.6160    77.3810 ns         1 LVY      -0.599500
      3 O1          79.3980    71.9060    72.6570 o          1 LVY      -0.602500
      4 C2          77.9500    73.2730    75.9890 c6         1 LVY      -0.089400
      5 N2          79.7150    71.9090    74.9420 n          1 LVY      -0.469800
      6 O2          81.5060    74.1020    75.8300 o          1 LVY      -0.604500
      7 C3          77.5310    74.5560    76.8420 c6         1 LVY      -0.156400
      8 N3          80.5640    68.1540    77.0650 nv         1 LVY      -0.813200
      9 O3          78.5520    75.6550    78.6760 o          1 LVY      -0.602500
     10 C4          78.6530    75.1420    77.6340 c          1 LVY       0.701500
     11 C5          80.3730    74.0150    76.2050 c          1 LVY       0.673500
     12 C6          79.6730    69.9090    73.9680 ca         1 LVY      -0.114600
     13 C7          80.0090    69.6770    75.3020 ca         1 LVY      -0.145300
     14 C8          80.2440    71.0300    76.0040 c5         1 LVY       0.131300
     15 C9          79.6250    71.3550    73.7060 c          1 LVY       0.721100
     16 C10         79.2650    67.5020    73.5970 ca         1 LVY      -0.107000
     17 C11         79.6320    67.2060    74.9430 ca         1 LVY      -0.157000
     18 C12         80.0310    68.3520    75.7840 ca         1 LVY       0.150600
     19 C13         79.2870    68.8800    73.0990 ca         1 LVY      -0.092000
     20 H1          79.1910    73.8750    74.4060 h1         1 LVY       0.113700
     21 H2          80.6840    74.8550    77.9820 hn         1 LVY       0.338500
     22 H3          78.9540    66.6650    72.9790 ha         1 LVY       0.139000
     23 H4          79.7670    66.1820    75.2760 ha         1 LVY       0.137000
     24 H5          79.0290    69.1330    72.0750 ha         1 LVY       0.156000
     25 H6          81.3060    71.2940    76.0900 h1         1 LVY       0.067700
     26 H7          79.6570    71.1850    76.9170 h1         1 LVY       0.067700
     27 H8          81.0630    68.9270    77.4850 hn         1 LVY       0.392300
     28 H9          80.8130    67.1920    77.2510 hn         1 LVY       0.392300
     29 H10         77.7530    72.3500    76.5500 hc         1 LVY       0.068700
     30 H11         77.1880    73.2500    75.2000 hc         1 LVY       0.068700
     31 H12         76.6270    74.4630    77.4590 hc         1 LVY       0.089700
     32 H13         77.2600    75.2830    76.0660 hc         1 LVY       0.089700
@<TRIPOS>BOND
     1     1    20 1   
     2     1     4 1   
     3     1    11 1   
     4     2    10 1   
     5     2    21 1   
     6     3    15 2   
     7     4    29 1   
     8     4     7 1   
     9     5     1 1   
    10     5    14 1   
    11     6    11 2   
    12     7    31 1   
    13     7    10 1   
    14     8    28 1   
    15     8    27 1   
    16    10     9 2   
    17    11     2 1   
    18    12    13 ar  
    19    13    18 ar  
    20    13    14 1   
    21    14    25 1   
    22    14    26 1   
    23    15    12 1   
    24    15     5 1   
    25    16    17 ar  
    26    17    23 1   
    27    17    18 ar  
    28    18     8 1   
    29    19    16 ar  
    30    19    12 ar  
    31    22    16 1   
    32    24    19 1   
    33    30     4 1   
    34    32     7 1   
@<TRIPOS>SUBSTRUCTURE
     1 LVY         1 TEMP              0 ****  ****    0 ROOT
