@<TRIPOS>MOLECULE
LVY
   32    34     1     0     0
SMALL
bcc


@<TRIPOS>ATOM
      1 C1          82.8730    82.9790    74.2150 c6         1 LVY       0.052700
      2 N1          83.9220    84.4750    75.9130 ns         1 LVY      -0.599500
      3 O1          82.7770    82.0200    71.3450 o          1 LVY      -0.601500
      4 C2          81.6310    82.9850    75.1440 c6         1 LVY      -0.088400
      5 N2          83.2940    81.6830    73.6110 n          1 LVY      -0.468800
      6 O2          85.1940    83.7150    74.2930 o          1 LVY      -0.597500
      7 C3          81.5030    84.2920    76.0060 c6         1 LVY      -0.156400
      8 N3          85.3890    78.0840    74.9580 nv         1 LVY      -0.817200
      9 O3          82.8840    85.4560    77.5480 o          1 LVY      -0.603500
     10 C4          82.8160    84.8080    76.5320 c          1 LVY       0.701500
     11 C5          84.1050    83.7560    74.7990 c          1 LVY       0.671500
     12 C6          83.8640    80.0410    72.1940 ca         1 LVY      -0.112600
     13 C7          84.3200    79.6140    73.4060 ca         1 LVY      -0.148300
     14 C8          83.8900    80.5790    74.4990 c5         1 LVY       0.131300
     15 C9          83.2290    81.3470    72.2970 c          1 LVY       0.720100
     16 C10         84.7670    78.0180    71.3320 ca         1 LVY      -0.106000
     17 C11         85.1130    77.5790    72.5900 ca         1 LVY      -0.158000
     18 C12         84.9850    78.4230    73.6710 ca         1 LVY       0.155600
     19 C13         84.1450    79.2540    71.0640 ca         1 LVY      -0.094000
     20 H1          82.6570    83.6410    73.3660 h1         1 LVY       0.113700
     21 H2          84.8060    84.8720    76.2090 hn         1 LVY       0.339500
     22 H3          84.9690    77.4290    70.4430 ha         1 LVY       0.139000
     23 H4          85.5200    76.5920    72.7910 ha         1 LVY       0.137000
     24 H5          83.8640    79.5040    70.0450 ha         1 LVY       0.156000
     25 H6          84.6530    80.9470    75.1960 h1         1 LVY       0.066700
     26 H7          83.0690    80.1540    75.0900 h1         1 LVY       0.066700
     27 H8          85.0180    78.5990    75.7450 hn         1 LVY       0.394300
     28 H9          85.6130    77.1120    75.1260 hn         1 LVY       0.394300
     29 H10         81.6980    82.2370    75.9450 hc         1 LVY       0.067200
     30 H11         80.6900    82.7200    74.6450 hc         1 LVY       0.067200
     31 H12         80.7730    84.1790    76.8180 hc         1 LVY       0.088700
     32 H13         81.1110    85.1040    75.3810 hc         1 LVY       0.088700
@<TRIPOS>BOND
     1     1    20 1   
     2     1    11 1   
     3     1     4 1   
     4     2    21 1   
     5     2    10 1   
     6     3    15 2   
     7     4    29 1   
     8     4     7 1   
     9     5     1 1   
    10     5    14 1   
    11     6    11 2   
    12     7    10 1   
    13     7    31 1   
    14     8    28 1   
    15     8    27 1   
    16    10     9 2   
    17    11     2 1   
    18    12    15 1   
    19    12    13 ar  
    20    13    18 ar  
    21    13    14 1   
    22    14    26 1   
    23    14    25 1   
    24    15     5 1   
    25    16    17 ar  
    26    17    23 1   
    27    17    18 ar  
    28    18     8 1   
    29    19    16 ar  
    30    19    12 ar  
    31    22    16 1   
    32    24    19 1   
    33    30     4 1   
    34    32     7 1   
@<TRIPOS>SUBSTRUCTURE
     1 LVY         1 TEMP              0 ****  ****    0 ROOT
