@<TRIPOS>MOLECULE
LVY
   32    34     1     0     0
SMALL
bcc


@<TRIPOS>ATOM
      1 C1          80.0880    75.9800    75.2000 c6         1 LVY       0.054700
      2 N1          81.0480    77.5060    76.9670 ns         1 LVY      -0.599500
      3 O1          79.3510    74.5950    72.6860 o          1 LVY      -0.602500
      4 C2          78.7770    76.0190    75.9800 c6         1 LVY      -0.089400
      5 N2          80.4170    74.6410    74.7570 n          1 LVY      -0.469800
      6 O2          82.4020    76.5610    75.4980 o          1 LVY      -0.604500
      7 C3          78.6140    77.2260    76.8270 c6         1 LVY      -0.156400
      8 N3          82.2520    70.9500    76.4030 nv         1 LVY      -0.813200
      9 O3          79.8250    78.2810    78.7230 o          1 LVY      -0.602500
     10 C4          79.8810    77.7190    77.6090 c          1 LVY       0.701500
     11 C5          81.2790    76.6940    75.9100 c          1 LVY       0.673500
     12 C6          80.3860    72.6190    73.6180 ca         1 LVY      -0.114600
     13 C7          80.9510    72.4040    74.8690 ca         1 LVY      -0.145300
     14 C8          81.0220    73.6910    75.7220 c5         1 LVY       0.131300
     15 C9          79.9670    74.0540    73.5580 c          1 LVY       0.721100
     16 C10         81.0440    70.3980    72.8640 ca         1 LVY      -0.107000
     17 C11         81.6270    70.1800    74.1670 ca         1 LVY      -0.157000
     18 C12         81.6490    71.2040    75.2100 ca         1 LVY       0.150600
     19 C13         80.4070    71.6240    72.6220 ca         1 LVY      -0.092000
     20 H1          79.9300    76.5640    74.2840 h1         1 LVY       0.113700
     21 H2          81.8720    77.9300    77.3760 hn         1 LVY       0.338500
     22 H3          81.1600    69.5470    72.2000 ha         1 LVY       0.139000
     23 H4          82.0350    69.1970    74.3870 ha         1 LVY       0.137000
     24 H5          80.0010    71.7320    71.6200 ha         1 LVY       0.156000
     25 H6          82.0790    73.8560    75.9650 h1         1 LVY       0.067700
     26 H7          80.4810    73.7220    76.6760 h1         1 LVY       0.067700
     27 H8          82.2490    71.6550    77.1290 hn         1 LVY       0.392300
     28 H9          83.0180    70.2900    76.3900 hn         1 LVY       0.392300
     29 H10         78.8570    75.1920    76.6990 hc         1 LVY       0.068700
     30 H11         77.8950    75.8580    75.3460 hc         1 LVY       0.068700
     31 H12         77.8480    77.1250    77.6070 hc         1 LVY       0.089700
     32 H13         78.2980    78.0540    76.1780 hc         1 LVY       0.089700
@<TRIPOS>BOND
     1     1    20 1   
     2     1    11 1   
     3     1     4 1   
     4     2    21 1   
     5     2    10 1   
     6     3    15 2   
     7     4    29 1   
     8     4     7 1   
     9     5     1 1   
    10     5    14 1   
    11     6    11 2   
    12     7    31 1   
    13     7    10 1   
    14     8    27 1   
    15    10     9 2   
    16    11     2 1   
    17    12    13 ar  
    18    13    18 ar  
    19    13    14 1   
    20    14    25 1   
    21    14    26 1   
    22    15    12 1   
    23    15     5 1   
    24    16    17 ar  
    25    17    23 1   
    26    17    18 ar  
    27    18     8 1   
    28    19    16 ar  
    29    19    12 ar  
    30    22    16 1   
    31    24    19 1   
    32    28     8 1   
    33    30     4 1   
    34    32     7 1   
@<TRIPOS>SUBSTRUCTURE
     1 LVY         1 TEMP              0 ****  ****    0 ROOT
