@<TRIPOS>MOLECULE
LVY
   32    34     1     0     0
SMALL
bcc


@<TRIPOS>ATOM
      1 C1          79.2320    74.8300    74.5600 c6         1 LVY       0.052700
      2 N1          80.3650    75.8780    76.5460 ns         1 LVY      -0.599500
      3 O1          78.5790    74.2290    71.7960 o          1 LVY      -0.601500
      4 C2          77.9620    74.7580    75.4260 c6         1 LVY      -0.088400
      5 N2          79.4690    73.5310    73.8360 n          1 LVY      -0.468800
      6 O2          81.6280    75.3580    74.8910 o          1 LVY      -0.597500
      7 C3          77.9200    75.9720    76.3260 c6         1 LVY      -0.156400
      8 N3          81.1900    69.4100    74.2610 nv         1 LVY      -0.817200
      9 O3          79.2430    76.8700    78.1330 o          1 LVY      -0.603500
     10 C4          79.2160    76.2880    77.0780 c          1 LVY       0.701500
     11 C5          80.4950    75.3590    75.3270 c          1 LVY       0.671500
     12 C6          79.6480    71.9960    72.1320 ca         1 LVY      -0.112600
     13 C7          80.3080    71.4870    73.1740 ca         1 LVY      -0.148300
     14 C8          80.1500    72.3690    74.4290 c5         1 LVY       0.131300
     15 C9          79.0920    73.4190    72.4810 c          1 LVY       0.720100
     16 C10         80.1810    70.0370    70.8160 ca         1 LVY      -0.106000
     17 C11         80.7970    69.5400    71.9400 ca         1 LVY      -0.158000
     18 C12         80.8350    70.2170    73.1440 ca         1 LVY       0.155600
     19 C13         79.5490    71.2700    70.8780 ca         1 LVY      -0.094000
     20 H1          78.9750    75.5460    73.7680 h1         1 LVY       0.113700
     21 H2          81.2050    76.2590    76.9670 hn         1 LVY       0.339500
     22 H3          80.1720    69.3750    69.9550 ha         1 LVY       0.139000
     23 H4          81.2740    68.5650    71.9010 ha         1 LVY       0.137000
     24 H5          79.0760    71.6270    69.9680 ha         1 LVY       0.156000
     25 H6          81.1090    72.5800    74.9180 h1         1 LVY       0.066700
     26 H7          79.4950    71.9580    75.2070 h1         1 LVY       0.066700
     27 H8          80.8720    69.6620    75.1870 hn         1 LVY       0.394300
     28 H9          81.6310    68.5120    74.1120 hn         1 LVY       0.394300
     29 H10         78.0600    73.8050    75.9630 hc         1 LVY       0.067200
     30 H11         77.0790    74.7550    74.7740 hc         1 LVY       0.067200
     31 H12         77.1500    76.0120    77.1080 hc         1 LVY       0.088700
     32 H13         77.7260    76.7550    75.5800 hc         1 LVY       0.088700
@<TRIPOS>BOND
     1     1    20 1   
     2     1    11 1   
     3     1     4 1   
     4     2    21 1   
     5     2    10 1   
     6     3    15 2   
     7     4    29 1   
     8     4     7 1   
     9     5    14 1   
    10     5     1 1   
    11     6    11 2   
    12     7    10 1   
    13     7    31 1   
    14     8    27 1   
    15    10     9 2   
    16    11     2 1   
    17    12    15 1   
    18    12    13 ar  
    19    13    14 1   
    20    14    25 1   
    21    14    26 1   
    22    15     5 1   
    23    16    19 ar  
    24    16    17 ar  
    25    17    18 ar  
    26    18    13 ar  
    27    18     8 1   
    28    19    12 ar  
    29    22    16 1   
    30    23    17 1   
    31    24    19 1   
    32    28     8 1   
    33    30     4 1   
    34    32     7 1   
@<TRIPOS>SUBSTRUCTURE
     1 LVY         1 TEMP              0 ****  ****    0 ROOT
