@<TRIPOS>MOLECULE
LVY
   32    34     1     0     0
SMALL
bcc


@<TRIPOS>ATOM
      1 C1          80.5860    75.8950    75.4210 c6         1 LVY       0.054700
      2 N1          81.4450    77.3360    77.2610 ns         1 LVY      -0.599500
      3 O1          80.2040    74.8330    72.6980 o          1 LVY      -0.602500
      4 C2          79.2850    75.8780    76.3150 c6         1 LVY      -0.089400
      5 N2          80.9120    74.5550    74.8870 n          1 LVY      -0.469800
      6 O2          82.8860    76.6690    75.6220 o          1 LVY      -0.604500
      7 C3          79.1050    77.1620    77.1500 c6         1 LVY      -0.156400
      8 N3          82.7090    70.8820    76.3080 nv         1 LVY      -0.813200
      9 O3          80.4530    78.0120    79.0680 o          1 LVY      -0.602500
     10 C4          80.3340    77.5930    77.9000 c          1 LVY       0.701500
     11 C5          81.7450    76.6300    76.0720 c          1 LVY       0.673500
     12 C6          81.0240    72.7150    73.5810 ca         1 LVY      -0.114600
     13 C7          81.6160    72.4110    74.8500 ca         1 LVY      -0.145300
     14 C8          81.6500    73.6070    75.7360 c5         1 LVY       0.131300
     15 C9          80.6540    74.1410    73.6030 c          1 LVY       0.721100
     16 C10         81.8520    70.6630    72.7100 ca         1 LVY      -0.107000
     17 C11         82.3290    70.3610    73.9550 ca         1 LVY      -0.157000
     18 C12         82.1500    71.1670    75.0950 ca         1 LVY       0.150600
     19 C13         81.1290    71.8070    72.4930 ca         1 LVY      -0.092000
     20 H1          80.3170    76.4970    74.5430 h1         1 LVY       0.113700
     21 H2          82.2510    77.8620    77.5780 hn         1 LVY       0.338500
     22 H3          81.9540    69.9160    71.9280 ha         1 LVY       0.139000
     23 H4          82.9190    69.4560    74.0650 ha         1 LVY       0.137000
     24 H5          80.9820    72.0840    71.4540 ha         1 LVY       0.156000
     25 H6          82.6660    73.9690    75.9350 h1         1 LVY       0.067700
     26 H7          81.0700    73.3500    76.6320 h1         1 LVY       0.067700
     27 H8          82.7040    71.5290    77.0850 hn         1 LVY       0.392300
     28 H9          83.1350    69.9890    76.5140 hn         1 LVY       0.392300
     29 H10         79.3810    75.0610    77.0420 hc         1 LVY       0.068700
     30 H11         78.3610    75.5180    75.8460 hc         1 LVY       0.068700
     31 H12         78.5010    76.7630    77.9750 hc         1 LVY       0.089700
     32 H13         78.5980    77.8310    76.4430 hc         1 LVY       0.089700
@<TRIPOS>BOND
     1     1    20 1   
     2     1    11 1   
     3     1     4 1   
     4     2    21 1   
     5     2    10 1   
     6     3    15 2   
     7     4    29 1   
     8     4     7 1   
     9     5     1 1   
    10     5    14 1   
    11     6    11 2   
    12     7    10 1   
    13     7    31 1   
    14     8    28 1   
    15     8    27 1   
    16    10     9 2   
    17    11     2 1   
    18    12    15 1   
    19    12    13 ar  
    20    13    18 ar  
    21    13    14 1   
    22    14    25 1   
    23    14    26 1   
    24    15     5 1   
    25    16    17 ar  
    26    17    23 1   
    27    17    18 ar  
    28    18     8 1   
    29    19    16 ar  
    30    19    12 ar  
    31    22    16 1   
    32    24    19 1   
    33    30     4 1   
    34    32     7 1   
@<TRIPOS>SUBSTRUCTURE
     1 LVY         1 TEMP              0 ****  ****    0 ROOT
