@<TRIPOS>MOLECULE
LVY
   32    34     1     0     0
SMALL
bcc


@<TRIPOS>ATOM
      1 C1          79.8960    75.9440    74.5440 c6         1 LVY       0.052700
      2 N1          80.7750    77.1430    76.5310 ns         1 LVY      -0.599500
      3 O1          79.7080    75.0070    71.7310 o          1 LVY      -0.601500
      4 C2          78.5790    75.7490    75.3100 c6         1 LVY      -0.088400
      5 N2          80.2490    74.6320    73.9720 n          1 LVY      -0.468800
      6 O2          82.1970    76.6410    74.8470 o          1 LVY      -0.597500
      7 C3          78.3090    76.8750    76.2950 c6         1 LVY      -0.156400
      8 N3          82.0820    70.8690    75.3360 nv         1 LVY      -0.817200
      9 O3          79.3880    78.0550    78.0710 o          1 LVY      -0.603500
     10 C4          79.5290    77.4130    77.0500 c          1 LVY       0.701500
     11 C5          81.0740    76.5770    75.3600 c          1 LVY       0.671500
     12 C6          80.5620    72.8870    72.6100 ca         1 LVY      -0.112600
     13 C7          81.0040    72.4900    73.8190 ca         1 LVY      -0.148300
     14 C8          80.9950    73.6320    74.8310 c5         1 LVY       0.131300
     15 C9          80.1110    74.2850    72.6250 c          1 LVY       0.720100
     16 C10         80.9380    70.6600    71.8090 ca         1 LVY      -0.106000
     17 C11         81.4230    70.2590    73.0590 ca         1 LVY      -0.158000
     18 C12         81.5370    71.1970    74.0740 ca         1 LVY       0.155600
     19 C13         80.5230    71.9500    71.5080 ca         1 LVY      -0.094000
     20 H1          79.6800    76.6450    73.7260 h1         1 LVY       0.113700
     21 H2          81.5870    77.3140    77.1120 hn         1 LVY       0.339500
     22 H3          80.8970    69.9360    71.0000 ha         1 LVY       0.139000
     23 H4          81.8020    69.2580    73.2430 ha         1 LVY       0.137000
     24 H5          80.0990    72.2620    70.5590 ha         1 LVY       0.156000
     25 H6          81.9650    74.0460    75.1350 h1         1 LVY       0.066700
     26 H7          80.4300    73.2340    75.6820 h1         1 LVY       0.066700
     27 H8          82.0500    71.5600    76.0750 hn         1 LVY       0.394300
     28 H9          82.0120    69.8930    75.5900 hn         1 LVY       0.394300
     29 H10         78.6150    74.8440    75.9310 hc         1 LVY       0.067200
     30 H11         77.7330    75.6240    74.6210 hc         1 LVY       0.067200
     31 H12         77.7210    76.5220    77.1520 hc         1 LVY       0.088700
     32 H13         77.7890    77.6840    75.7650 hc         1 LVY       0.088700
@<TRIPOS>BOND
     1     1    20 1   
     2     1     4 1   
     3     1    11 1   
     4     2    10 1   
     5     2    21 1   
     6     3    15 2   
     7     4    29 1   
     8     4     7 1   
     9     5     1 1   
    10     5    14 1   
    11     6    11 2   
    12     7    10 1   
    13     7    31 1   
    14     8    28 1   
    15     8    27 1   
    16    10     9 2   
    17    11     2 1   
    18    12    15 1   
    19    12    13 ar  
    20    13    18 ar  
    21    13    14 1   
    22    14    25 1   
    23    14    26 1   
    24    15     5 1   
    25    16    17 ar  
    26    17    23 1   
    27    17    18 ar  
    28    18     8 1   
    29    19    16 ar  
    30    19    12 ar  
    31    22    16 1   
    32    24    19 1   
    33    30     4 1   
    34    32     7 1   
@<TRIPOS>SUBSTRUCTURE
     1 LVY         1 TEMP              0 ****  ****    0 ROOT
