@<TRIPOS>MOLECULE
LVY
   32    34     1     0     0
SMALL
bcc


@<TRIPOS>ATOM
      1 C1          80.3930    76.5040    75.3040 c6         1 LVY       0.054700
      2 N1          81.4250    77.7470    77.1630 ns         1 LVY      -0.599500
      3 O1          79.7740    75.2150    72.7250 o          1 LVY      -0.602500
      4 C2          79.1020    76.5350    76.1300 c6         1 LVY      -0.089400
      5 N2          80.5300    75.0700    74.9410 n          1 LVY      -0.469800
      6 O2          82.7160    77.2150    75.3520 o          1 LVY      -0.604500
      7 C3          79.0050    77.7720    77.0690 c6         1 LVY      -0.156400
      8 N3          82.0740    71.3010    76.6150 nv         1 LVY      -0.813200
      9 O3          80.3370    78.8290    78.7830 o          1 LVY      -0.602500
     10 C4          80.2970    78.1980    77.7130 c          1 LVY       0.701500
     11 C5          81.6390    77.2500    75.9120 c          1 LVY       0.673500
     12 C6          80.8180    73.2070    73.6590 ca         1 LVY      -0.114600
     13 C7          81.1580    72.9180    74.9720 ca         1 LVY      -0.145300
     14 C8          81.0760    74.0580    75.9020 c5         1 LVY       0.131300
     15 C9          80.2940    74.6160    73.6540 c          1 LVY       0.721100
     16 C10         81.4990    71.0000    72.9110 ca         1 LVY      -0.107000
     17 C11         81.8910    70.7260    74.2830 ca         1 LVY      -0.157000
     18 C12         81.7450    71.6760    75.3210 ca         1 LVY       0.150600
     19 C13         80.9720    72.3160    72.6130 ca         1 LVY      -0.092000
     20 H1          80.1930    77.1430    74.4330 h1         1 LVY       0.113700
     21 H2          82.2220    78.1810    77.6140 hn         1 LVY       0.338500
     22 H3          81.6150    70.3180    72.0740 ha         1 LVY       0.139000
     23 H4          82.1910    69.7320    74.6020 ha         1 LVY       0.137000
     24 H5          80.6300    72.6350    71.6330 ha         1 LVY       0.156000
     25 H6          82.0400    74.3700    76.3210 h1         1 LVY       0.067700
     26 H7          80.4620    73.7700    76.7640 h1         1 LVY       0.067700
     27 H8          82.1230    72.0070    77.3380 hn         1 LVY       0.392300
     28 H9          82.4970    70.3890    76.7280 hn         1 LVY       0.392300
     29 H10         78.9270    75.5960    76.6710 hc         1 LVY       0.068700
     30 H11         78.2720    76.6810    75.4260 hc         1 LVY       0.068700
     31 H12         78.2050    77.8030    77.8190 hc         1 LVY       0.089700
     32 H13         78.8220    78.6440    76.4270 hc         1 LVY       0.089700
@<TRIPOS>BOND
     1     1    20 1   
     2     1    11 1   
     3     1     4 1   
     4     2    21 1   
     5     2    10 1   
     6     3    15 2   
     7     4    29 1   
     8     4     7 1   
     9     5     1 1   
    10     5    14 1   
    11     6    11 2   
    12     7    10 1   
    13     7    31 1   
    14     8    28 1   
    15     8    27 1   
    16    10     9 2   
    17    11     2 1   
    18    12    13 ar  
    19    13    18 ar  
    20    13    14 1   
    21    14    25 1   
    22    14    26 1   
    23    15    12 1   
    24    15     5 1   
    25    16    17 ar  
    26    17    23 1   
    27    17    18 ar  
    28    18     8 1   
    29    19    16 ar  
    30    19    12 ar  
    31    22    16 1   
    32    24    19 1   
    33    30     4 1   
    34    32     7 1   
@<TRIPOS>SUBSTRUCTURE
     1 LVY         1 TEMP              0 ****  ****    0 ROOT
