@<TRIPOS>MOLECULE
LVY
   32    34     1     0     0
SMALL
bcc


@<TRIPOS>ATOM
      1 C1          81.6630    77.6920    75.9650 c6         1 LVY       0.052700
      2 N1          82.5500    79.2780    77.6900 ns         1 LVY      -0.599500
      3 O1          81.2410    76.1410    73.4240 o          1 LVY      -0.601500
      4 C2          80.2780    77.7360    76.8460 c6         1 LVY      -0.088400
      5 N2          81.9920    76.2760    75.6630 n          1 LVY      -0.468800
      6 O2          84.0100    78.2050    76.3970 o          1 LVY      -0.597500
      7 C3          80.0990    79.0860    77.5000 c6         1 LVY      -0.156400
      8 N3          84.0070    72.8160    77.5790 nv         1 LVY      -0.817200
      9 O3          81.1320    80.0400    79.3130 o          1 LVY      -0.603500
     10 C4          81.2920    79.5580    78.2400 c          1 LVY       0.701500
     11 C5          82.8470    78.4330    76.6760 c          1 LVY       0.671500
     12 C6          82.2350    74.1990    74.6400 ca         1 LVY      -0.112600
     13 C7          82.8140    74.0610    75.8610 ca         1 LVY      -0.148300
     14 C8          82.8370    75.3990    76.5910 c5         1 LVY       0.131300
     15 C9          81.7800    75.6300    74.4180 c          1 LVY       0.720100
     16 C10         82.4800    71.8380    74.3320 ca         1 LVY      -0.106000
     17 C11         83.0780    71.6910    75.5900 ca         1 LVY      -0.158000
     18 C12         83.3190    72.8490    76.3540 ca         1 LVY       0.155600
     19 C13         82.0770    73.0900    73.8470 ca         1 LVY      -0.094000
     20 H1          81.5120    78.1800    74.9930 h1         1 LVY       0.113700
     21 H2          83.3030    79.5890    78.2920 hn         1 LVY       0.339500
     22 H3          82.2450    70.9680    73.7250 ha         1 LVY       0.139000
     23 H4          83.3600    70.7570    76.0670 ha         1 LVY       0.137000
     24 H5          81.5780    73.0770    72.8820 ha         1 LVY       0.156000
     25 H6          83.8950    75.6580    76.7220 h1         1 LVY       0.066700
     26 H7          82.3850    75.2240    77.5750 h1         1 LVY       0.066700
     27 H8          83.8480    73.4930    78.3130 hn         1 LVY       0.394300
     28 H9          84.2520    71.9100    77.9540 hn         1 LVY       0.394300
     29 H10         80.3300    76.8830    77.5360 hc         1 LVY       0.067200
     30 H11         79.4540    77.4730    76.1710 hc         1 LVY       0.067200
     31 H12         79.3360    79.1180    78.2890 hc         1 LVY       0.088700
     32 H13         79.9220    79.8340    76.7160 hc         1 LVY       0.088700
@<TRIPOS>BOND
     1     1    20 1   
     2     1    11 1   
     3     1     4 1   
     4     2    10 1   
     5     2    21 1   
     6     3    15 2   
     7     4     7 1   
     8     4    29 1   
     9     5     1 1   
    10     5    14 1   
    11     6    11 2   
    12     7    10 1   
    13     7    31 1   
    14     8    28 1   
    15     8    27 1   
    16    10     9 2   
    17    11     2 1   
    18    12    13 ar  
    19    13    18 ar  
    20    13    14 1   
    21    14    25 1   
    22    14    26 1   
    23    15    12 1   
    24    15     5 1   
    25    16    17 ar  
    26    17    23 1   
    27    17    18 ar  
    28    18     8 1   
    29    19    16 ar  
    30    19    12 ar  
    31    22    16 1   
    32    24    19 1   
    33    30     4 1   
    34    32     7 1   
@<TRIPOS>SUBSTRUCTURE
     1 LVY         1 TEMP              0 ****  ****    0 ROOT
