@<TRIPOS>MOLECULE
LVY
   32    34     1     0     0
SMALL
bcc


@<TRIPOS>ATOM
      1 C1          81.9600    81.7010    76.0090 c6         1 LVY       0.054700
      2 N1          82.8320    83.2530    77.7720 ns         1 LVY      -0.599500
      3 O1          81.5560    80.3790    73.3810 o          1 LVY      -0.602500
      4 C2          80.7300    81.3760    76.8890 c6         1 LVY      -0.089400
      5 N2          82.4380    80.3940    75.5280 n          1 LVY      -0.469800
      6 O2          84.2200    82.8480    76.1150 o          1 LVY      -0.604500
      7 C3          80.3800    82.6510    77.6360 c6         1 LVY      -0.156400
      8 N3          84.3420    76.7610    76.9460 nv         1 LVY      -0.813200
      9 O3          81.5010    83.7090    79.5850 o          1 LVY      -0.602500
     10 C4          81.6300    83.2220    78.4430 c          1 LVY       0.701500
     11 C5          83.1260    82.6440    76.6020 c          1 LVY       0.673500
     12 C6          82.7260    78.4950    74.1950 ca         1 LVY      -0.114600
     13 C7          83.2260    78.2190    75.4320 ca         1 LVY      -0.145300
     14 C8          83.2060    79.4430    76.3890 c5         1 LVY       0.131300
     15 C9          82.1710    79.8370    74.2740 c          1 LVY       0.721100
     16 C10         82.9590    76.1750    73.5590 ca         1 LVY      -0.107000
     17 C11         83.5080    75.9110    74.7890 ca         1 LVY      -0.157000
     18 C12         83.6810    76.9660    75.7860 ca         1 LVY       0.150600
     19 C13         82.5830    77.4730    73.2160 ca         1 LVY      -0.092000
     20 H1          81.5270    82.2290    75.1480 h1         1 LVY       0.113700
     21 H2          83.6570    83.5790    78.2610 hn         1 LVY       0.338500
     22 H3          82.7610    75.3310    72.9050 ha         1 LVY       0.139000
     23 H4          83.8440    74.8970    74.9850 ha         1 LVY       0.137000
     24 H5          81.9990    77.6380    72.3150 ha         1 LVY       0.156000
     25 H6          84.2190    79.8010    76.6160 h1         1 LVY       0.067700
     26 H7          82.7440    79.1380    77.3360 h1         1 LVY       0.067700
     27 H8          84.3670    77.4400    77.6950 hn         1 LVY       0.392300
     28 H9          85.0270    76.0170    76.9770 hn         1 LVY       0.392300
     29 H10         80.8640    80.5300    77.5750 hc         1 LVY       0.068700
     30 H11         79.9320    81.0790    76.1960 hc         1 LVY       0.068700
     31 H12         79.4570    82.5470    78.2220 hc         1 LVY       0.089700
     32 H13         80.1030    83.3310    76.8190 hc         1 LVY       0.089700
@<TRIPOS>BOND
     1     1    20 1   
     2     1    11 1   
     3     1     4 1   
     4     2    21 1   
     5     2    10 1   
     6     3    15 2   
     7     4    29 1   
     8     4     7 1   
     9     5     1 1   
    10     5    14 1   
    11     6    11 2   
    12     7    31 1   
    13     7    10 1   
    14     8    28 1   
    15     8    27 1   
    16    10     9 2   
    17    11     2 1   
    18    12    15 1   
    19    12    13 ar  
    20    13    18 ar  
    21    13    14 1   
    22    14    25 1   
    23    14    26 1   
    24    15     5 1   
    25    16    17 ar  
    26    17    23 1   
    27    17    18 ar  
    28    18     8 1   
    29    19    16 ar  
    30    19    12 ar  
    31    22    16 1   
    32    24    19 1   
    33    30     4 1   
    34    32     7 1   
@<TRIPOS>SUBSTRUCTURE
     1 LVY         1 TEMP              0 ****  ****    0 ROOT
