@<TRIPOS>MOLECULE
LVY
   32    34     1     0     0
SMALL
bcc


@<TRIPOS>ATOM
      1 C1          45.8110   130.8550    15.3620 c3       501 LVY       0.054700
      2 C2          47.0800   131.6510    15.0820 c3       501 LVY      -0.089400
      3 C3          47.8730   130.9930    13.9580 c3       501 LVY      -0.156400
      4 C4          48.1250   129.5400    14.1980 c        501 LVY       0.701500
      5 N5          47.3190   128.9260    15.1330 n        501 LVY      -0.599500
      6 C6          46.0910   129.3700    15.5620 c        501 LVY       0.673500
      7 C7          43.6280   132.6780    17.7200 ca       501 LVY      -0.114600
      8 C8          44.4420   132.0260    18.6260 ca       501 LVY      -0.145300
      9 C9          45.4160   131.1570    17.8920 c3       501 LVY       0.131300
     10 N10         45.0800   131.4180    16.4930 n        501 LVY      -0.469800
     11 C11         44.0220   132.2680    16.3600 c        501 LVY       0.721100
     12 C12         42.4700   133.7530    19.4750 ca       501 LVY      -0.107000
     13 C13         43.2880   133.1020    20.3980 ca       501 LVY      -0.157000
     14 C14         44.2920   132.2220    19.9980 ca       501 LVY       0.150600
     15 C15         42.6270   133.5520    18.1180 ca       501 LVY      -0.092000
     16 O16         43.5170   132.6060    15.2930 o        501 LVY      -0.602500
     17 N17         45.0930   131.5840    20.9030 nh       501 LVY      -0.813200
     18 O18         45.2870   128.6010    16.0400 o        501 LVY      -0.604500
     19 O19         48.9880   128.9120    13.6160 o        501 LVY      -0.602500
     20 H32C        47.3910   131.0990    13.1230 hc       501 LVY       0.089700
     21 H31C        48.7220   131.4510    13.8560 hc       501 LVY       0.089700
     22 H22C        46.8520   132.5610    14.8370 hc       501 LVY       0.068700
     23 H21C        47.6230   131.7010    15.8840 hc       501 LVY       0.068700
     24 H172        44.9830   131.7200    21.7450 hn       501 LVY       0.392300
     25 H171        45.7070   131.0470    20.6300 hn       501 LVY       0.392300
     26 H92         46.3350   131.3940    18.0930 h1       501 LVY       0.067700
     27 H91         45.3080   130.2210    18.1210 h1       501 LVY       0.067700
     28 H5          47.6120   128.1960    15.4810 hn       501 LVY       0.338500
     29 H15         42.0620   134.0020    17.4710 ha       501 LVY       0.156000
     30 H13         43.1540   133.2660    21.3450 ha       501 LVY       0.137000
     31 H12         41.7800   134.3570    19.7910 ha       501 LVY       0.139000
     32 H1          45.2490   130.9270    14.5750 h1       501 LVY       0.113700
@<TRIPOS>BOND
     1     1     2 1   
     2     1     6 1   
     3     1    10 1   
     4     1    32 1   
     5     2     3 1   
     6     2    22 1   
     7     2    23 1   
     8     3     4 1   
     9     3    20 1   
    10     3    21 1   
    11     4     5 1   
    12     4    19 2   
    13     5     6 1   
    14     5    28 1   
    15     6    18 2   
    16     7     8 ar  
    17     7    11 1   
    18     7    15 ar  
    19     8     9 1   
    20     8    14 ar  
    21     9    10 1   
    22     9    26 1   
    23     9    27 1   
    24    10    11 1   
    25    11    16 2   
    26    12    13 ar  
    27    12    15 ar  
    28    12    31 1   
    29    13    14 ar  
    30    13    30 1   
    31    14    17 1   
    32    15    29 1   
    33    17    24 1   
    34    17    25 1   
@<TRIPOS>SUBSTRUCTURE
     1 LVY         1 TEMP              0 ****  ****    0 ROOT
