@<TRIPOS>MOLECULE
LVY
   32    34     1     0     0
SMALL
bcc


@<TRIPOS>ATOM
      1 C1          80.6940    75.4200    75.7420 c6         1 LVY       0.052700
      2 N1          81.5460    76.7940    77.5870 ns         1 LVY      -0.599500
      3 O1          80.4240    74.5010    73.0860 o          1 LVY      -0.601500
      4 C2          79.3450    75.3400    76.5840 c6         1 LVY      -0.088400
      5 N2          81.0270    74.0760    75.2790 n          1 LVY      -0.468800
      6 O2          82.9900    75.9370    76.0780 o          1 LVY      -0.597500
      7 C3          79.1640    76.7130    77.2310 c6         1 LVY      -0.156400
      8 N3          82.0400    70.0210    76.7570 nv         1 LVY      -0.817200
      9 O3          80.2570    77.7830    79.0990 o          1 LVY      -0.603500
     10 C4          80.3600    77.2090    78.0220 c          1 LVY       0.701500
     11 C5          81.8640    76.0720    76.4880 c          1 LVY       0.671500
     12 C6          81.0990    72.2600    73.9450 ca         1 LVY      -0.112600
     13 C7          81.3880    71.8320    75.2570 ca         1 LVY      -0.148300
     14 C8          81.4730    73.0170    76.1760 c5         1 LVY       0.131300
     15 C9          80.7790    73.6890    73.9590 c          1 LVY       0.720100
     16 C10         81.3030    69.9900    73.0800 ca         1 LVY      -0.106000
     17 C11         81.5780    69.5980    74.4510 ca         1 LVY      -0.158000
     18 C12         81.6530    70.5040    75.5160 ca         1 LVY       0.155600
     19 C13         81.0620    71.4010    72.8670 ca         1 LVY      -0.094000
     20 H1          80.7090    76.1310    74.9050 h1         1 LVY       0.113700
     21 H2          82.3250    77.0790    78.1670 hn         1 LVY       0.339500
     22 H3          81.3230    69.2770    72.2610 ha         1 LVY       0.139000
     23 H4          81.7640    68.5540    74.6840 ha         1 LVY       0.137000
     24 H5          80.9280    71.7890    71.8610 ha         1 LVY       0.156000
     25 H6          82.5420    73.0540    76.4190 h1         1 LVY       0.066700
     26 H7          80.9170    72.9640    77.1210 h1         1 LVY       0.066700
     27 H8          81.8390    70.5220    77.6120 hn         1 LVY       0.394300
     28 H9          82.4300    69.0880    76.7920 hn         1 LVY       0.394300
     29 H10         79.3500    74.5270    77.3220 hc         1 LVY       0.067200
     30 H11         78.4470    75.1090    75.9960 hc         1 LVY       0.067200
     31 H12         78.3060    76.8100    77.9100 hc         1 LVY       0.088700
     32 H13         79.0180    77.4330    76.4150 hc         1 LVY       0.088700
@<TRIPOS>BOND
     1     1    20 1   
     2     1    11 1   
     3     1     4 1   
     4     2    10 1   
     5     2    21 1   
     6     3    15 2   
     7     4     7 1   
     8     4    29 1   
     9     5     1 1   
    10     5    14 1   
    11     6    11 2   
    12     7    31 1   
    13     7    10 1   
    14     8    28 1   
    15     8    27 1   
    16    10     9 2   
    17    11     2 1   
    18    12    15 1   
    19    12    13 ar  
    20    13    18 ar  
    21    13    14 1   
    22    14    25 1   
    23    14    26 1   
    24    15     5 1   
    25    16    17 ar  
    26    17    23 1   
    27    17    18 ar  
    28    18     8 1   
    29    19    16 ar  
    30    19    12 ar  
    31    22    16 1   
    32    24    19 1   
    33    30     4 1   
    34    32     7 1   
@<TRIPOS>SUBSTRUCTURE
     1 LVY         1 TEMP              0 ****  ****    0 ROOT
