@<TRIPOS>MOLECULE
LVY
   32    34     1     0     0
SMALL
bcc


@<TRIPOS>ATOM
      1 C1          79.2750    74.1920    75.4230 c6         1 LVY       0.052700
      2 N1          79.9310    75.8000    77.2620 ns         1 LVY      -0.599500
      3 O1          79.0580    72.5280    72.8860 o          1 LVY      -0.601500
      4 C2          77.8850    74.1310    76.0770 c6         1 LVY      -0.088400
      5 N2          79.7400    72.7920    75.2090 n          1 LVY      -0.468800
      6 O2          81.5190    75.0270    75.8940 o          1 LVY      -0.597500
      7 C3          77.4760    75.4880    76.8250 c6         1 LVY      -0.156400
      8 N3          81.3130    69.1770    77.2940 nv         1 LVY      -0.817200
      9 O3          78.4350    76.5990    78.7260 o          1 LVY      -0.603500
     10 C4          78.6280    76.0450    77.6510 c          1 LVY       0.701500
     11 C5          80.3320    75.0050    76.1510 c          1 LVY       0.671500
     12 C6          79.7100    70.7010    74.3420 ca         1 LVY      -0.112600
     13 C7          80.1940    70.6290    75.6470 ca         1 LVY      -0.148300
     14 C8          80.3200    72.0260    76.3170 c5         1 LVY       0.131300
     15 C9          79.3830    72.0650    74.0030 c          1 LVY       0.720100
     16 C10         79.7470    68.3210    74.1660 ca         1 LVY      -0.106000
     17 C11         80.4350    68.2800    75.4190 ca         1 LVY      -0.158000
     18 C12         80.6210    69.4030    76.1630 ca         1 LVY       0.155600
     19 C13         79.4190    69.5440    73.6070 ca         1 LVY      -0.094000
     20 H1          79.1680    74.7020    74.4560 h1         1 LVY       0.113700
     21 H2          80.6270    76.2200    77.8660 hn         1 LVY       0.339500
     22 H3          79.5710    67.4210    73.5830 ha         1 LVY       0.139000
     23 H4          80.8260    67.3240    75.7540 ha         1 LVY       0.137000
     24 H5          79.0200    69.7020    72.6090 ha         1 LVY       0.156000
     25 H6          81.3830    72.2300    76.4950 h1         1 LVY       0.066700
     26 H7          79.7380    72.0630    77.2460 h1         1 LVY       0.066700
     27 H8          81.1510    69.7470    78.1140 hn         1 LVY       0.394300
     28 H9          81.4630    68.1940    77.4810 hn         1 LVY       0.394300
     29 H10         77.8410    73.3310    76.8270 hc         1 LVY       0.067200
     30 H11         77.0910    73.9460    75.3420 hc         1 LVY       0.067200
     31 H12         76.5590    75.3930    77.4220 hc         1 LVY       0.088700
     32 H13         77.2520    76.1630    75.9880 hc         1 LVY       0.088700
@<TRIPOS>BOND
     1     1    20 1   
     2     1     4 1   
     3     1    11 1   
     4     2    10 1   
     5     2    21 1   
     6     3    15 2   
     7     4     7 1   
     8     4    29 1   
     9     5     1 1   
    10     5    14 1   
    11     6    11 2   
    12     7    31 1   
    13     7    10 1   
    14     8    28 1   
    15     8    27 1   
    16    10     9 2   
    17    11     2 1   
    18    12    13 ar  
    19    13    18 ar  
    20    13    14 1   
    21    14    25 1   
    22    14    26 1   
    23    15    12 1   
    24    15     5 1   
    25    16    17 ar  
    26    17    23 1   
    27    17    18 ar  
    28    18     8 1   
    29    19    16 ar  
    30    19    12 ar  
    31    22    16 1   
    32    24    19 1   
    33    30     4 1   
    34    32     7 1   
@<TRIPOS>SUBSTRUCTURE
     1 LVY         1 TEMP              0 ****  ****    0 ROOT
