@<TRIPOS>MOLECULE
LVY
   32    34     1     0     0
SMALL
bcc


@<TRIPOS>ATOM
      1 C1          81.3350    75.8970    75.2820 c6         1 LVY       0.052700
      2 N1          82.2410    77.4540    76.9840 ns         1 LVY      -0.599500
      3 O1          81.0060    74.6600    72.5760 o          1 LVY      -0.601500
      4 C2          80.1100    75.8400    76.1240 c6         1 LVY      -0.088400
      5 N2          81.5270    74.4440    74.7750 n          1 LVY      -0.468800
      6 O2          83.6130    76.7250    75.4840 o          1 LVY      -0.597500
      7 C3          79.8380    77.1890    76.9060 c6         1 LVY      -0.156400
      8 N3          83.1610    70.6820    76.1890 nv         1 LVY      -0.817200
      9 O3          81.0370    78.0810    78.7550 o          1 LVY      -0.603500
     10 C4          81.0670    77.6180    77.6290 c          1 LVY       0.701500
     11 C5          82.5320    76.6000    75.9830 c          1 LVY       0.671500
     12 C6          81.6910    72.5910    73.4080 ca         1 LVY      -0.112600
     13 C7          82.1180    72.2000    74.7200 ca         1 LVY      -0.148300
     14 C8          82.2650    73.4170    75.6090 c5         1 LVY       0.131300
     15 C9          81.3540    74.0120    73.4840 c          1 LVY       0.720100
     16 C10         81.7800    70.3530    72.7190 ca         1 LVY      -0.106000
     17 C11         82.4450    69.9800    73.9720 ca         1 LVY      -0.158000
     18 C12         82.5370    70.9320    75.0080 ca         1 LVY       0.155600
     19 C13         81.3060    71.6840    72.4340 ca         1 LVY      -0.094000
     20 H1          81.0240    76.4490    74.3850 h1         1 LVY       0.113700
     21 H2          82.9810    77.9430    77.4760 hn         1 LVY       0.339500
     22 H3          81.6030    69.5800    71.9760 ha         1 LVY       0.139000
     23 H4          82.7550    68.9610    74.1810 ha         1 LVY       0.137000
     24 H5          80.7680    71.9430    71.5270 ha         1 LVY       0.156000
     25 H6          83.3350    73.6560    75.6300 h1         1 LVY       0.066700
     26 H7          81.9180    73.3840    76.6500 h1         1 LVY       0.066700
     27 H8          82.8040    71.0830    77.0460 hn         1 LVY       0.394300
     28 H9          83.7930    69.9030    76.3190 hn         1 LVY       0.394300
     29 H10         80.1240    74.9620    76.7820 hc         1 LVY       0.067200
     30 H11         79.2810    75.7380    75.4110 hc         1 LVY       0.067200
     31 H12         78.9610    77.1270    77.5640 hc         1 LVY       0.088700
     32 H13         79.6080    77.9550    76.1540 hc         1 LVY       0.088700
@<TRIPOS>BOND
     1     1    20 1   
     2     1    11 1   
     3     1     4 1   
     4     2    21 1   
     5     2    10 1   
     6     3    15 2   
     7     4    29 1   
     8     4     7 1   
     9     5     1 1   
    10     5    14 1   
    11     6    11 2   
    12     7    31 1   
    13     7    10 1   
    14     8    28 1   
    15     8    27 1   
    16    10     9 2   
    17    11     2 1   
    18    12    15 1   
    19    12    13 ar  
    20    13    18 ar  
    21    13    14 1   
    22    14    25 1   
    23    14    26 1   
    24    15     5 1   
    25    16    17 ar  
    26    17    23 1   
    27    17    18 ar  
    28    18     8 1   
    29    19    16 ar  
    30    19    12 ar  
    31    22    16 1   
    32    24    19 1   
    33    30     4 1   
    34    32     7 1   
@<TRIPOS>SUBSTRUCTURE
     1 LVY         1 TEMP              0 ****  ****    0 ROOT
