@<TRIPOS>MOLECULE
LVY
   32    34     1     0     0
SMALL
bcc


@<TRIPOS>ATOM
      1 C1          79.3950    75.7560    74.8670 c6         1 LVY       0.052700
      2 N1          80.1660    76.8150    76.8060 ns         1 LVY      -0.599500
      3 O1          79.2030    75.0640    71.9850 o          1 LVY      -0.601500
      4 C2          78.0890    75.5000    75.5870 c6         1 LVY      -0.088400
      5 N2          79.8030    74.5170    74.1990 n          1 LVY      -0.468800
      6 O2          81.6480    76.5120    75.1980 o          1 LVY      -0.597500
      7 C3          77.7550    76.7650    76.4550 c6         1 LVY      -0.156400
      8 N3          81.6370    70.7400    75.2410 nv         1 LVY      -0.817200
      9 O3          78.7720    77.5760    78.4130 o          1 LVY      -0.603500
     10 C4          78.8960    77.2020    77.2450 c          1 LVY       0.701500
     11 C5          80.5070    76.3470    75.6120 c          1 LVY       0.671500
     12 C6          80.1990    72.8600    72.6660 ca         1 LVY      -0.112600
     13 C7          80.6440    72.3800    73.8720 ca         1 LVY      -0.148300
     14 C8          80.3530    73.3680    74.9670 c5         1 LVY       0.131300
     15 C9          79.6460    74.2750    72.8700 c          1 LVY       0.720100
     16 C10         81.0250    70.7820    71.6650 ca         1 LVY      -0.106000
     17 C11         81.4740    70.3200    72.8750 ca         1 LVY      -0.158000
     18 C12         81.2820    71.1540    73.9920 ca         1 LVY       0.155600
     19 C13         80.3700    72.0620    71.5250 ca         1 LVY      -0.094000
     20 H1          79.1470    76.4900    74.0880 h1         1 LVY       0.113700
     21 H2          80.9390    77.3300    77.2110 hn         1 LVY       0.339500
     22 H3          81.3280    70.3070    70.7370 ha         1 LVY       0.139000
     23 H4          81.9880    69.3650    72.9390 ha         1 LVY       0.137000
     24 H5          79.9460    72.4660    70.6110 ha         1 LVY       0.156000
     25 H6          81.2920    73.5760    75.4940 h1         1 LVY       0.066700
     26 H7          79.5760    72.9610    75.6260 h1         1 LVY       0.066700
     27 H8          81.4270    71.3210    76.0420 hn         1 LVY       0.394300
     28 H9          82.0390    69.8250    75.3960 hn         1 LVY       0.394300
     29 H10         78.1370    74.7000    76.3370 hc         1 LVY       0.067200
     30 H11         77.3340    75.2910    74.8170 hc         1 LVY       0.067200
     31 H12         76.8570    76.6900    77.0810 hc         1 LVY       0.088700
     32 H13         77.5320    77.4960    75.6670 hc         1 LVY       0.088700
@<TRIPOS>BOND
     1     1    20 1   
     2     1     4 1   
     3     1    11 1   
     4     2    21 1   
     5     2    10 1   
     6     3    15 2   
     7     4    29 1   
     8     4     7 1   
     9     5     1 1   
    10     5    14 1   
    11     6    11 2   
    12     7    31 1   
    13     7    10 1   
    14     8    28 1   
    15     8    27 1   
    16    10     9 2   
    17    11     2 1   
    18    12    15 1   
    19    12    13 ar  
    20    13    18 ar  
    21    13    14 1   
    22    14    25 1   
    23    14    26 1   
    24    15     5 1   
    25    16    17 ar  
    26    17    23 1   
    27    17    18 ar  
    28    18     8 1   
    29    19    16 ar  
    30    19    12 ar  
    31    22    16 1   
    32    24    19 1   
    33    30     4 1   
    34    32     7 1   
@<TRIPOS>SUBSTRUCTURE
     1 LVY         1 TEMP              0 ****  ****    0 ROOT
