@<TRIPOS>MOLECULE
LVY
   32    34     1     0     0
SMALL
bcc


@<TRIPOS>ATOM
      1 C1          82.6270    82.5570    74.7480 c6         1 LVY       0.054700
      2 N1          83.2620    83.7910    76.8400 ns         1 LVY      -0.599500
      3 O1          82.5400    81.4580    72.0090 o          1 LVY      -0.602500
      4 C2          81.2410    82.4040    75.4560 c6         1 LVY      -0.089400
      5 N2          83.0320    81.1990    74.2280 n          1 LVY      -0.469800
      6 O2          84.8670    83.2410    75.3690 o          1 LVY      -0.604500
      7 C3          80.8130    83.6200    76.3470 c6         1 LVY      -0.156400
      8 N3          85.0790    77.4880    75.5910 nv         1 LVY      -0.813200
      9 O3          81.8430    84.5070    78.3450 o          1 LVY      -0.602500
     10 C4          81.9760    83.9860    77.2460 c          1 LVY       0.701500
     11 C5          83.6280    83.2180    75.6410 c          1 LVY       0.673500
     12 C6          83.4900    79.3880    72.9110 ca         1 LVY      -0.114600
     13 C7          84.0340    79.0810    74.1580 ca         1 LVY      -0.145300
     14 C8          83.8320    80.2540    75.0980 c5         1 LVY       0.131300
     15 C9          82.8980    80.7400    72.9430 c          1 LVY       0.721100
     16 C10         84.0760    77.2040    72.0340 ca         1 LVY      -0.107000
     17 C11         84.6500    76.8800    73.2640 ca         1 LVY      -0.157000
     18 C12         84.5860    77.8370    74.3550 ca         1 LVY       0.150600
     19 C13         83.4670    78.4740    71.8410 ca         1 LVY      -0.092000
     20 H1          82.6060    83.3280    73.9660 h1         1 LVY       0.113700
     21 H2          84.0220    84.0800    77.4450 hn         1 LVY       0.338500
     22 H3          84.2940    76.5330    71.2080 ha         1 LVY       0.139000
     23 H4          85.0100    75.8680    73.4270 ha         1 LVY       0.137000
     24 H5          82.8480    78.6510    70.9660 ha         1 LVY       0.156000
     25 H6          84.8230    80.5330    75.4770 h1         1 LVY       0.067700
     26 H7          83.2120    79.9650    75.9560 h1         1 LVY       0.067700
     27 H8          85.2740    78.2130    76.2680 hn         1 LVY       0.392300
     28 H9          85.6540    76.6560    75.6040 hn         1 LVY       0.392300
     29 H10         81.2130    81.5030    76.0820 hc         1 LVY       0.068700
     30 H11         80.4760    82.2170    74.6910 hc         1 LVY       0.068700
     31 H12         80.0140    83.3510    77.0510 hc         1 LVY       0.089700
     32 H13         80.4500    84.5080    75.8120 hc         1 LVY       0.089700
@<TRIPOS>BOND
     1     1    20 1   
     2     1     4 1   
     3     1    11 1   
     4     2    10 1   
     5     2    21 1   
     6     3    15 2   
     7     4    29 1   
     8     4     7 1   
     9     5     1 1   
    10     5    14 1   
    11     6    11 2   
    12     7    31 1   
    13     7    10 1   
    14     8    28 1   
    15     8    27 1   
    16    10     9 2   
    17    11     2 1   
    18    12    15 1   
    19    12    13 ar  
    20    13    18 ar  
    21    13    14 1   
    22    14    25 1   
    23    14    26 1   
    24    15     5 1   
    25    16    17 ar  
    26    17    23 1   
    27    17    18 ar  
    28    18     8 1   
    29    19    16 ar  
    30    19    12 ar  
    31    22    16 1   
    32    24    19 1   
    33    30     4 1   
    34    32     7 1   
@<TRIPOS>SUBSTRUCTURE
     1 LVY         1 TEMP              0 ****  ****    0 ROOT
