@<TRIPOS>MOLECULE
LVY
   32    34     1     0     0
SMALL
bcc


@<TRIPOS>ATOM
      1 C1          82.7350    81.5570    75.0750 c6         1 LVY       0.052700
      2 N1          83.5400    82.9400    76.9400 ns         1 LVY      -0.599500
      3 O1          82.7030    80.1150    72.5850 o          1 LVY      -0.601500
      4 C2          81.3930    81.4750    75.8700 c6         1 LVY      -0.088400
      5 N2          83.0950    80.1290    74.8070 n          1 LVY      -0.468800
      6 O2          84.9880    82.4590    75.3890 o          1 LVY      -0.597500
      7 C3          81.1670    82.7610    76.6250 c6         1 LVY      -0.156400
      8 N3          85.2740    77.0130    76.7270 nv         1 LVY      -0.817200
      9 O3          82.1690    83.8010    78.4820 o          1 LVY      -0.603500
     10 C4          82.3250    83.2340    77.4640 c          1 LVY       0.701500
     11 C5          83.8330    82.3750    75.7770 c          1 LVY       0.671500
     12 C6          83.8660    78.3240    73.6510 ca         1 LVY      -0.112600
     13 C7          84.2450    78.1710    74.9800 ca         1 LVY      -0.148300
     14 C8          83.8320    79.3170    75.8220 c5         1 LVY       0.131300
     15 C9          83.1910    79.6270    73.5520 c          1 LVY       0.720100
     16 C10         85.0760    76.3360    73.1410 ca         1 LVY      -0.106000
     17 C11         85.4730    76.2080    74.4900 ca         1 LVY      -0.158000
     18 C12         85.0210    77.1640    75.4380 ca         1 LVY       0.155600
     19 C13         84.1880    77.3600    72.6750 ca         1 LVY      -0.094000
     20 H1          82.5830    82.0780    74.1200 h1         1 LVY       0.113700
     21 H2          84.3580    83.0640    77.5250 hn         1 LVY       0.339500
     22 H3          85.4860    75.7350    72.3350 ha         1 LVY       0.139000
     23 H4          86.1650    75.4500    74.8440 ha         1 LVY       0.137000
     24 H5          84.0050    77.4990    71.6140 ha         1 LVY       0.156000
     25 H6          84.6980    79.8350    76.2530 h1         1 LVY       0.066700
     26 H7          83.1840    78.9040    76.6060 h1         1 LVY       0.066700
     27 H8          84.8190    77.5930    77.4200 hn         1 LVY       0.394300
     28 H9          85.4640    76.0770    77.0600 hn         1 LVY       0.394300
     29 H10         81.4730    80.6520    76.5920 hc         1 LVY       0.067200
     30 H11         80.5200    81.2650    75.2390 hc         1 LVY       0.067200
     31 H12         80.3160    82.6950    77.3160 hc         1 LVY       0.088700
     32 H13         80.9440    83.4800    75.8260 hc         1 LVY       0.088700
@<TRIPOS>BOND
     1     1    20 1   
     2     1    11 1   
     3     1     4 1   
     4     2    10 1   
     5     2    21 1   
     6     3    15 2   
     7     4    29 1   
     8     4     7 1   
     9     5     1 1   
    10     5    14 1   
    11     6    11 2   
    12     7    31 1   
    13     7    10 1   
    14     8    28 1   
    15     8    27 1   
    16    10     9 2   
    17    11     2 1   
    18    12    13 ar  
    19    13    18 ar  
    20    13    14 1   
    21    14    25 1   
    22    14    26 1   
    23    15    12 1   
    24    15     5 1   
    25    16    17 ar  
    26    17    23 1   
    27    17    18 ar  
    28    18     8 1   
    29    19    16 ar  
    30    19    12 ar  
    31    22    16 1   
    32    24    19 1   
    33    30     4 1   
    34    32     7 1   
@<TRIPOS>SUBSTRUCTURE
     1 LVY         1 TEMP              0 ****  ****    0 ROOT
