@<TRIPOS>MOLECULE
LVY
   32    34     1     0     0
SMALL
bcc


@<TRIPOS>ATOM
      1 C1          81.4660    78.7870    74.4120 c6         1 LVY       0.052700
      2 N1          82.3720    80.1630    76.2940 ns         1 LVY      -0.599500
      3 O1          81.5480    77.8040    71.6260 o          1 LVY      -0.601500
      4 C2          80.3690    78.4430    75.5360 c6         1 LVY      -0.088400
      5 N2          82.0200    77.5010    73.8320 n          1 LVY      -0.468800
      6 O2          83.6690    79.7170    74.5830 o          1 LVY      -0.597500
      7 C3          79.9000    79.7230    76.2500 c6         1 LVY      -0.156400
      8 N3          83.8210    73.8420    75.2300 nv         1 LVY      -0.817200
      9 O3          81.0110    81.1180    77.8980 o          1 LVY      -0.603500
     10 C4          81.1400    80.4620    76.8750 c          1 LVY       0.701500
     11 C5          82.6090    79.6220    75.1060 c          1 LVY       0.671500
     12 C6          82.5660    75.7270    72.4030 ca         1 LVY      -0.112600
     13 C7          82.9680    75.3770    73.6670 ca         1 LVY      -0.148300
     14 C8          82.7150    76.4930    74.7330 c5         1 LVY       0.131300
     15 C9          81.9760    77.0660    72.5020 c          1 LVY       0.720100
     16 C10         83.2280    73.5440    71.5770 ca         1 LVY      -0.106000
     17 C11         83.5540    73.0930    72.8810 ca         1 LVY      -0.158000
     18 C12         83.4430    74.0820    73.9050 ca         1 LVY       0.155600
     19 C13         82.6510    74.8400    71.3520 ca         1 LVY      -0.094000
     20 H1          81.1970    79.5240    73.6440 h1         1 LVY       0.113700
     21 H2          83.2030    80.5630    76.7140 hn         1 LVY       0.339500
     22 H3          83.2780    72.7990    70.7880 ha         1 LVY       0.139000
     23 H4          83.9900    72.1060    73.0010 ha         1 LVY       0.137000
     24 H5          82.2620    75.1240    70.3790 ha         1 LVY       0.156000
     25 H6          83.6220    76.9400    75.1580 h1         1 LVY       0.066700
     26 H7          81.9550    76.1260    75.4340 h1         1 LVY       0.066700
     27 H8          83.6150    74.5570    75.9140 hn         1 LVY       0.394300
     28 H9          84.1630    72.9260    75.4920 hn         1 LVY       0.394300
     29 H10         80.7550    77.7740    76.3150 hc         1 LVY       0.067200
     30 H11         79.4890    77.9720    75.0780 hc         1 LVY       0.067200
     31 H12         79.2080    79.4690    77.0640 hc         1 LVY       0.088700
     32 H13         79.3720    80.3730    75.5390 hc         1 LVY       0.088700
@<TRIPOS>BOND
     1     1    20 1   
     2     1    11 1   
     3     1     4 1   
     4     2    21 1   
     5     2    10 1   
     6     3    15 2   
     7     4     7 1   
     8     4    29 1   
     9     5     1 1   
    10     5    14 1   
    11     6    11 2   
    12     7    10 1   
    13     7    31 1   
    14     8    28 1   
    15     8    27 1   
    16    10     9 2   
    17    11     2 1   
    18    12    15 1   
    19    12    13 ar  
    20    13    18 ar  
    21    13    14 1   
    22    14    25 1   
    23    14    26 1   
    24    15     5 1   
    25    16    17 ar  
    26    17    23 1   
    27    17    18 ar  
    28    18     8 1   
    29    19    16 ar  
    30    19    12 ar  
    31    22    16 1   
    32    24    19 1   
    33    30     4 1   
    34    32     7 1   
@<TRIPOS>SUBSTRUCTURE
     1 LVY         1 TEMP              0 ****  ****    0 ROOT
