@<TRIPOS>MOLECULE
LVY
   32    34     1     0     0
SMALL
bcc


@<TRIPOS>ATOM
      1 C1          79.6870    72.2960    74.8500 c6         1 LVY       0.055700
      2 N1          79.8950    73.8620    76.7430 ns         1 LVY      -0.599500
      3 O1          79.8970    70.6610    72.5340 o          1 LVY      -0.596500
      4 C2          78.1660    72.5400    74.9510 c6         1 LVY      -0.094400
      5 N2          79.9450    70.8330    74.8280 n          1 LVY      -0.481800
      6 O2          81.7550    73.2540    75.6140 o          1 LVY      -0.587500
      7 C3          77.7230    72.7800    76.3970 c6         1 LVY      -0.152400
      8 N3          80.3620    67.1240    77.2840 nv         1 LVY      -0.818200
      9 O3          78.3760    74.3180    78.2140 o          1 LVY      -0.605500
     10 C4          78.6580    73.6870    77.2240 c          1 LVY       0.699500
     11 C5          80.5720    73.1710    75.7330 c          1 LVY       0.675500
     12 C6          80.1250    68.7520    74.0070 ca         1 LVY      -0.112600
     13 C7          80.1870    68.6550    75.3950 ca         1 LVY      -0.156300
     14 C8          80.1150    69.9950    76.0270 c5         1 LVY       0.136300
     15 C9          80.0190    70.1170    73.6250 c          1 LVY       0.718100
     16 C10         80.3560    66.4030    73.6140 ca         1 LVY      -0.104000
     17 C11         80.3630    66.2910    75.0240 ca         1 LVY      -0.159000
     18 C12         80.2540    67.3820    75.9180 ca         1 LVY       0.158600
     19 C13         80.1910    67.6500    73.1220 ca         1 LVY      -0.094000
     20 H1          79.9100    72.6620    73.8390 h1         1 LVY       0.117700
     21 H2          80.4670    74.5650    77.1950 hn         1 LVY       0.337500
     22 H3          80.4020    65.5050    73.0040 ha         1 LVY       0.140000
     23 H4          80.3960    65.2900    75.4420 ha         1 LVY       0.138000
     24 H5          79.9610    67.8200    72.0740 ha         1 LVY       0.157000
     25 H6          81.0440    70.3060    76.5220 h1         1 LVY       0.060200
     26 H7          79.2530    70.1020    76.6970 h1         1 LVY       0.060200
     27 H8          80.1840    67.9280    77.8720 hn         1 LVY       0.396300
     28 H9          79.9490    66.2460    77.5680 hn         1 LVY       0.396300
     29 H10         77.5460    71.8100    74.4140 hc         1 LVY       0.071700
     30 H11         78.0500    73.4840    74.4030 hc         1 LVY       0.071700
     31 H12         77.7960    71.7900    76.8650 hc         1 LVY       0.085700
     32 H13         76.6780    73.0480    76.6010 hc         1 LVY       0.085700
@<TRIPOS>BOND
     1     1    20 1   
     2     1     4 1   
     3     1    11 1   
     4     2    21 1   
     5     2    10 1   
     6     3    15 2   
     7     4     7 1   
     8     5     1 1   
     9     5    14 1   
    10     6    11 2   
    11     7    32 1   
    12     7    31 1   
    13     7    10 1   
    14     8    28 1   
    15     8    27 1   
    16    10     9 2   
    17    11     2 1   
    18    12    13 ar  
    19    13    18 ar  
    20    13    14 1   
    21    14    25 1   
    22    14    26 1   
    23    15    12 1   
    24    15     5 1   
    25    16    17 ar  
    26    17    23 1   
    27    17    18 ar  
    28    18     8 1   
    29    19    16 ar  
    30    19    12 ar  
    31    22    16 1   
    32    24    19 1   
    33    29     4 1   
    34    30     4 1   
@<TRIPOS>SUBSTRUCTURE
     1 LVY         1 TEMP              0 ****  ****    0 ROOT
