@<TRIPOS>MOLECULE
LVY
   32    34     1     0     0
SMALL
bcc


@<TRIPOS>ATOM
      1 C1          80.5560    75.5220    75.8980 c6         1 LVY       0.052700
      2 N1          81.6770    76.6980    77.8650 ns         1 LVY      -0.599500
      3 O1          80.1050    74.6330    73.0730 o          1 LVY      -0.601500
      4 C2          79.3610    75.5230    76.8480 c6         1 LVY      -0.088400
      5 N2          80.7710    74.2230    75.2650 n          1 LVY      -0.468800
      6 O2          82.9980    76.0700    76.1400 o          1 LVY      -0.597500
      7 C3          79.2500    76.8750    77.6530 c6         1 LVY      -0.156400
      8 N3          82.3610    70.3610    76.4020 nv         1 LVY      -0.817200
      9 O3          80.5160    77.4340    79.6540 o          1 LVY      -0.603500
     10 C4          80.4890    77.0470    78.4710 c          1 LVY       0.701500
     11 C5          81.8780    76.1490    76.6690 c          1 LVY       0.671500
     12 C6          80.9940    72.5410    73.8210 ca         1 LVY      -0.112600
     13 C7          81.5010    72.0470    74.9830 ca         1 LVY      -0.148300
     14 C8          81.3990    73.1190    76.0440 c5         1 LVY       0.131300
     15 C9          80.4930    73.8890    73.9400 c          1 LVY       0.720100
     16 C10         81.4420    70.3810    72.7920 ca         1 LVY      -0.106000
     17 C11         82.0130    69.8970    74.0340 ca         1 LVY      -0.158000
     18 C12         81.9200    70.7690    75.1650 ca         1 LVY       0.155600
     19 C13         80.8900    71.6940    72.7180 ca         1 LVY      -0.094000
     20 H1          80.3700    76.2990    75.1440 h1         1 LVY       0.113700
     21 H2          82.5220    76.8400    78.4060 hn         1 LVY       0.339500
     22 H3          81.3910    69.7830    71.8870 ha         1 LVY       0.139000
     23 H4          82.5400    68.9610    74.1930 ha         1 LVY       0.137000
     24 H5          80.5650    72.0590    71.7490 ha         1 LVY       0.156000
     25 H6          82.3770    73.3410    76.4880 h1         1 LVY       0.066700
     26 H7          80.7790    72.7430    76.8670 h1         1 LVY       0.066700
     27 H8          82.1780    70.9050    77.2350 hn         1 LVY       0.394300
     28 H9          82.7120    69.4270    76.5670 hn         1 LVY       0.394300
     29 H10         79.4360    74.7090    77.5810 hc         1 LVY       0.067200
     30 H11         78.3910    75.4290    76.3430 hc         1 LVY       0.067200
     31 H12         78.3930    76.8590    78.3390 hc         1 LVY       0.088700
     32 H13         79.1190    77.7580    77.0140 hc         1 LVY       0.088700
@<TRIPOS>BOND
     1     1    20 1   
     2     1    11 1   
     3     1     4 1   
     4     2    21 1   
     5     2    10 1   
     6     3    15 2   
     7     4    29 1   
     8     4     7 1   
     9     5     1 1   
    10     5    14 1   
    11     6    11 2   
    12     7    31 1   
    13     7    10 1   
    14     8    28 1   
    15     8    27 1   
    16    10     9 2   
    17    11     2 1   
    18    12    15 1   
    19    12    13 ar  
    20    13    18 ar  
    21    13    14 1   
    22    14    25 1   
    23    14    26 1   
    24    15     5 1   
    25    16    17 ar  
    26    17    23 1   
    27    17    18 ar  
    28    18     8 1   
    29    19    16 ar  
    30    19    12 ar  
    31    22    16 1   
    32    24    19 1   
    33    30     4 1   
    34    32     7 1   
@<TRIPOS>SUBSTRUCTURE
     1 LVY         1 TEMP              0 ****  ****    0 ROOT
