@<TRIPOS>MOLECULE
lenalidomide.pdb
   32     0     1     0     0
SMALL
GASTEIGER


@<TRIPOS>ATOM
      1 C            45.8110  130.8550   15.3620 Du       1 MOL        0.0547
      2 C            47.0800  131.6510   15.0820 Du       1 MOL       -0.0894
      3 C            47.8730  130.9930   13.9580 Du       1 MOL       -0.1564
      4 C            48.1250  129.5400   14.1980 Du       1 MOL        0.7015
      5 N            47.3190  128.9260   15.1330 Du       1 MOL       -0.5995
      6 C            46.0910  129.3700   15.5620 Du       1 MOL        0.6735
      7 C            43.6280  132.6780   17.7200 Du       1 MOL       -0.1146
      8 C            44.4420  132.0260   18.6260 Du       1 MOL       -0.1453
      9 C            45.4160  131.1570   17.8920 Du       1 MOL        0.1313
     10 N            45.0800  131.4180   16.4930 Du       1 MOL       -0.4698
     11 C            44.0220  132.2680   16.3600 Du       1 MOL        0.7211
     12 C            42.4700  133.7530   19.4750 Du       1 MOL       -0.1070
     13 C            43.2880  133.1020   20.3980 Du       1 MOL       -0.1570
     14 C            44.2920  132.2220   19.9980 Du       1 MOL        0.1506
     15 C            42.6270  133.5520   18.1180 Du       1 MOL       -0.0920
     16 O            43.5170  132.6060   15.2930 Du       1 MOL       -0.6025
     17 N            45.0930  131.5840   20.9030 Du       1 MOL       -0.8132
     18 O            45.2870  128.6010   16.0400 Du       1 MOL       -0.6045
     19 O            48.9880  128.9120   13.6160 Du       1 MOL       -0.6025
     20 H            47.3910  131.0990   13.1230 Du       1 MOL        0.0897
     21 H            48.7220  131.4510   13.8560 Du       1 MOL        0.0897
     22 H            46.8520  132.5610   14.8370 Du       1 MOL        0.0687
     23 H            47.6230  131.7010   15.8840 Du       1 MOL        0.0687
     24 H            44.9830  131.7200   21.7450 Du       1 MOL        0.3923
     25 H            45.7070  131.0470   20.6300 Du       1 MOL        0.3923
     26 H            46.3350  131.3940   18.0930 Du       1 MOL        0.0677
     27 H            45.3080  130.2210   18.1210 Du       1 MOL        0.0677
     28 H            47.6120  128.1960   15.4810 Du       1 MOL        0.3385
     29 H            42.0620  134.0020   17.4710 Du       1 MOL        0.1560
     30 H            43.1540  133.2660   21.3450 Du       1 MOL        0.1370
     31 H            41.7800  134.3570   19.7910 Du       1 MOL        0.1390
     32 H            45.2490  130.9270   14.5750 Du       1 MOL        0.1137
@<TRIPOS>SUBSTRUCTURE
     1 MOL         1  RESIDUE
