@<TRIPOS>MOLECULE
LVY
   32    34     1     0     0
SMALL
bcc


@<TRIPOS>ATOM
      1 C1          79.2840    74.8630    75.6580 c6         1 LVY       0.054700
      2 N1          80.3860    75.7540    77.6220 ns         1 LVY      -0.599500
      3 O1          78.7430    74.0980    72.6270 o          1 LVY      -0.602500
      4 C2          78.0890    74.5720    76.6410 c6         1 LVY      -0.089400
      5 N2          79.4770    73.5860    74.8720 n          1 LVY      -0.469800
      6 O2          81.6200    75.4420    75.8950 o          1 LVY      -0.604500
      7 C3          77.9000    75.8040    77.5770 c6         1 LVY      -0.156400
      8 N3          81.0540    69.6160    75.4820 nv         1 LVY      -0.813200
      9 O3          79.2550    76.6970    79.3180 o          1 LVY      -0.602500
     10 C4          79.2070    76.1080    78.2510 c          1 LVY       0.701500
     11 C5          80.5320    75.3520    76.3830 c          1 LVY       0.673500
     12 C6          79.7060    72.0330    73.1780 ca         1 LVY      -0.114600
     13 C7          80.1780    71.5020    74.3260 ca         1 LVY      -0.145300
     14 C8          79.9860    72.3180    75.5780 c5         1 LVY       0.131300
     15 C9          79.2590    73.4010    73.4730 c          1 LVY       0.721100
     16 C10         80.2190    69.9350    72.0150 ca         1 LVY      -0.107000
     17 C11         80.7450    69.4270    73.1610 ca         1 LVY      -0.157000
     18 C12         80.7090    70.2070    74.3230 ca         1 LVY       0.150600
     19 C13         79.6670    71.2600    72.0260 ca         1 LVY      -0.092000
     20 H1          79.0140    75.6720    74.9660 h1         1 LVY       0.113700
     21 H2          81.1960    75.9500    78.1990 hn         1 LVY       0.338500
     22 H3          80.2860    69.3700    71.0900 ha         1 LVY       0.139000
     23 H4          81.1670    68.4270    73.1330 ha         1 LVY       0.137000
     24 H5          79.2190    71.7210    71.1520 ha         1 LVY       0.156000
     25 H6          80.9720    72.4600    76.0370 h1         1 LVY       0.067700
     26 H7          79.2890    71.9830    76.3560 h1         1 LVY       0.067700
     27 H8          80.9050    70.1240    76.3440 hn         1 LVY       0.392300
     28 H9          81.6570    68.8050    75.4540 hn         1 LVY       0.392300
     29 H10         78.2970    73.6230    77.1520 hc         1 LVY       0.068700
     30 H11         77.2490    74.2930    75.9920 hc         1 LVY       0.068700
     31 H12         77.1310    75.5890    78.3310 hc         1 LVY       0.089700
     32 H13         77.5580    76.6390    76.9520 hc         1 LVY       0.089700
@<TRIPOS>BOND
     1     1    20 1   
     2     1    11 1   
     3     1     4 1   
     4     2    21 1   
     5     2    10 1   
     6     3    15 2   
     7     4    29 1   
     8     4     7 1   
     9     5    14 1   
    10     5     1 1   
    11     6    11 2   
    12     7    10 1   
    13     7    31 1   
    14     8    27 1   
    15    10     9 2   
    16    11     2 1   
    17    12    15 1   
    18    12    13 ar  
    19    13    14 1   
    20    14    25 1   
    21    14    26 1   
    22    15     5 1   
    23    16    19 ar  
    24    16    17 ar  
    25    17    18 ar  
    26    18    13 ar  
    27    18     8 1   
    28    19    12 ar  
    29    22    16 1   
    30    23    17 1   
    31    24    19 1   
    32    28     8 1   
    33    30     4 1   
    34    32     7 1   
@<TRIPOS>SUBSTRUCTURE
     1 LVY         1 TEMP              0 ****  ****    0 ROOT
