@<TRIPOS>MOLECULE
LVY
   32    34     1     0     0
SMALL
bcc


@<TRIPOS>ATOM
      1 C1          79.7450    75.4540    74.7460 c6         1 LVY       0.052700
      2 N1          80.6200    76.6930    76.7860 ns         1 LVY      -0.599500
      3 O1          79.1920    74.8170    71.9680 o          1 LVY      -0.601500
      4 C2          78.3890    75.3220    75.5400 c6         1 LVY      -0.088400
      5 N2          80.1180    74.1810    74.0100 n          1 LVY      -0.468800
      6 O2          82.1130    76.0460    75.1860 o          1 LVY      -0.597500
      7 C3          78.1240    76.5550    76.4370 c6         1 LVY      -0.156400
      8 N3          81.7110    70.1480    74.6150 nv         1 LVY      -0.817200
      9 O3          79.3150    77.5280    78.4090 o          1 LVY      -0.603500
     10 C4          79.3700    76.9490    77.3080 c          1 LVY       0.701500
     11 C5          80.9350    76.0520    75.6210 c          1 LVY       0.671500
     12 C6          80.1850    72.5980    72.3070 ca         1 LVY      -0.112600
     13 C7          80.7670    72.0220    73.4940 ca         1 LVY      -0.148300
     14 C8          80.6840    73.0290    74.7380 c5         1 LVY       0.131300
     15 C9          79.7840    73.9770    72.6610 c          1 LVY       0.720100
     16 C10         80.8790    70.6840    71.0210 ca         1 LVY      -0.106000
     17 C11         81.3650    70.0940    72.2100 ca         1 LVY      -0.158000
     18 C12         81.2960    70.8000    73.4570 ca         1 LVY       0.155600
     19 C13         80.2520    71.9690    71.0570 ca         1 LVY      -0.094000
     20 H1          79.4660    76.1950    73.9850 h1         1 LVY       0.113700
     21 H2          81.3840    77.1260    77.2900 hn         1 LVY       0.339500
     22 H3          80.9920    70.1260    70.0960 ha         1 LVY       0.139000
     23 H4          81.9080    69.1680    72.0510 ha         1 LVY       0.137000
     24 H5          79.9910    72.4780    70.1340 ha         1 LVY       0.156000
     25 H6          81.6680    73.1750    75.2030 h1         1 LVY       0.066700
     26 H7          80.0160    72.6470    75.5200 h1         1 LVY       0.066700
     27 H8          81.5190    70.6080    75.4950 hn         1 LVY       0.394300
     28 H9          82.0400    69.1910    74.6140 hn         1 LVY       0.394300
     29 H10         78.4440    74.4130    76.1530 hc         1 LVY       0.067200
     30 H11         77.6520    75.1100    74.7540 hc         1 LVY       0.067200
     31 H12         77.2670    76.3660    77.0970 hc         1 LVY       0.088700
     32 H13         77.9170    77.4580    75.8470 hc         1 LVY       0.088700
@<TRIPOS>BOND
     1     1    20 1   
     2     1     4 1   
     3     1    11 1   
     4     2    21 1   
     5     2    10 1   
     6     3    15 2   
     7     4    29 1   
     8     4     7 1   
     9     5    14 1   
    10     5     1 1   
    11     6    11 2   
    12     7    31 1   
    13     7    10 1   
    14     8    27 1   
    15    10     9 2   
    16    11     2 1   
    17    12    15 1   
    18    12    13 ar  
    19    13    14 1   
    20    14    25 1   
    21    14    26 1   
    22    15     5 1   
    23    16    19 ar  
    24    16    17 ar  
    25    17    18 ar  
    26    18    13 ar  
    27    18     8 1   
    28    19    12 ar  
    29    22    16 1   
    30    23    17 1   
    31    24    19 1   
    32    28     8 1   
    33    30     4 1   
    34    32     7 1   
@<TRIPOS>SUBSTRUCTURE
     1 LVY         1 TEMP              0 ****  ****    0 ROOT
