@<TRIPOS>MOLECULE
LVY
   32    34     1     0     0
SMALL
bcc


@<TRIPOS>ATOM
      1 C1          82.2640    80.8580    76.0050 c6         1 LVY       0.054700
      2 N1          83.4510    82.1450    77.6970 ns         1 LVY      -0.599500
      3 O1          81.5610    79.9280    73.3080 o          1 LVY      -0.602500
      4 C2          81.0970    80.8260    77.0100 c6         1 LVY      -0.089400
      5 N2          82.4880    79.5710    75.4100 n          1 LVY      -0.469800
      6 O2          84.5980    81.4040    75.9560 o          1 LVY      -0.604500
      7 C3          81.0840    82.0940    77.9320 c6         1 LVY      -0.156400
      8 N3          84.2370    75.7340    76.3530 nv         1 LVY      -0.813200
      9 O3          82.6710    83.3370    79.3090 o          1 LVY      -0.602500
     10 C4          82.4560    82.6780    78.3380 c          1 LVY       0.701500
     11 C5          83.5600    81.4510    76.5520 c          1 LVY       0.673500
     12 C6          82.6010    77.8580    73.9300 ca         1 LVY      -0.114600
     13 C7          83.1420    77.4220    75.0840 ca         1 LVY      -0.145300
     14 C8          83.1200    78.4740    76.1340 c5         1 LVY       0.131300
     15 C9          82.1420    79.2360    74.0750 c          1 LVY       0.721100
     16 C10         83.1980    75.6860    72.9080 ca         1 LVY      -0.107000
     17 C11         83.6800    75.2890    74.1540 ca         1 LVY      -0.157000
     18 C12         83.6470    76.1500    75.2280 ca         1 LVY       0.150600
     19 C13         82.6230    77.0210    72.7680 ca         1 LVY      -0.092000
     20 H1          81.9210    81.5950    75.2660 h1         1 LVY       0.113700
     21 H2          84.3620    82.3950    78.0620 hn         1 LVY       0.338500
     22 H3          83.3770    75.0750    72.0280 ha         1 LVY       0.139000
     23 H4          84.2220    74.3490    74.1230 ha         1 LVY       0.137000
     24 H5          82.3550    77.3370    71.7640 ha         1 LVY       0.156000
     25 H6          84.0990    78.9080    76.3730 h1         1 LVY       0.067700
     26 H7          82.6020    78.1240    77.0360 h1         1 LVY       0.067700
     27 H8          84.1970    76.3160    77.1800 hn         1 LVY       0.392300
     28 H9          84.9250    75.0050    76.2160 hn         1 LVY       0.392300
     29 H10         81.0660    79.9660    77.6920 hc         1 LVY       0.068700
     30 H11         80.1390    80.9050    76.4790 hc         1 LVY       0.068700
     31 H12         80.4140    82.0870    78.8020 hc         1 LVY       0.089700
     32 H13         80.6970    82.9200    77.3220 hc         1 LVY       0.089700
@<TRIPOS>BOND
     1     1    20 1   
     2     1    11 1   
     3     1     4 1   
     4     2    21 1   
     5     2    10 1   
     6     3    15 2   
     7     4    29 1   
     8     4     7 1   
     9     5     1 1   
    10     5    14 1   
    11     6    11 2   
    12     7    10 1   
    13     7    31 1   
    14     8    27 1   
    15    10     9 2   
    16    11     2 1   
    17    12    15 1   
    18    12    13 ar  
    19    13    18 ar  
    20    13    14 1   
    21    14    25 1   
    22    14    26 1   
    23    15     5 1   
    24    16    17 ar  
    25    17    18 ar  
    26    18     8 1   
    27    19    16 ar  
    28    19    12 ar  
    29    22    16 1   
    30    23    17 1   
    31    24    19 1   
    32    28     8 1   
    33    30     4 1   
    34    32     7 1   
@<TRIPOS>SUBSTRUCTURE
     1 LVY         1 TEMP              0 ****  ****    0 ROOT
