@<TRIPOS>MOLECULE
LVY
   32    34     1     0     0
SMALL
bcc


@<TRIPOS>ATOM
      1 C1          79.7990    74.3950    75.2810 c6         1 LVY       0.052700
      2 N1          80.2980    75.6140    77.3800 ns         1 LVY      -0.599500
      3 O1          79.7600    72.9310    72.7120 o          1 LVY      -0.601500
      4 C2          78.3600    74.3700    75.7570 c6         1 LVY      -0.088400
      5 N2          80.2380    72.9500    74.9490 n          1 LVY      -0.468800
      6 O2          81.9390    75.0710    75.9740 o          1 LVY      -0.597500
      7 C3          77.9840    75.4820    76.7400 c6         1 LVY      -0.156400
      8 N3          81.4350    69.3090    77.0900 nv         1 LVY      -0.817200
      9 O3          78.6360    76.1920    78.8950 o          1 LVY      -0.603500
     10 C4          79.0150    75.7080    77.8220 c          1 LVY       0.701500
     11 C5          80.7490    75.0980    76.2340 c          1 LVY       0.671500
     12 C6          80.1580    70.8540    74.0100 ca         1 LVY      -0.112600
     13 C7          80.6540    70.7230    75.3300 ca         1 LVY      -0.148300
     14 C8          80.6650    72.0400    76.0930 c5         1 LVY       0.131300
     15 C9          80.0030    72.3440    73.7390 c          1 LVY       0.720100
     16 C10         80.3840    68.4280    73.5690 ca         1 LVY      -0.106000
     17 C11         80.9020    68.3200    74.8840 ca         1 LVY      -0.158000
     18 C12         81.0080    69.4190    75.7240 ca         1 LVY       0.155600
     19 C13         80.0550    69.7170    73.1440 ca         1 LVY      -0.094000
     20 H1          79.8280    74.9860    74.3560 h1         1 LVY       0.113700
     21 H2          81.0010    76.0700    77.9500 hn         1 LVY       0.339500
     22 H3          80.2560    67.5610    72.9280 ha         1 LVY       0.139000
     23 H4          81.3310    67.4090    75.2920 ha         1 LVY       0.137000
     24 H5          79.6840    69.7960    72.1270 ha         1 LVY       0.156000
     25 H6          81.7160    72.3020    76.2710 h1         1 LVY       0.066700
     26 H7          80.1030    72.2340    77.0150 h1         1 LVY       0.066700
     27 H8          81.2650    69.9780    77.8290 hn         1 LVY       0.394300
     28 H9          81.6900    68.4140    77.4860 hn         1 LVY       0.394300
     29 H10         78.1940    73.3660    76.1700 hc         1 LVY       0.067200
     30 H11         77.6100    74.2670    74.9610 hc         1 LVY       0.067200
     31 H12         77.0510    75.3370    77.3000 hc         1 LVY       0.088700
     32 H13         77.8300    76.4390    76.2240 hc         1 LVY       0.088700
@<TRIPOS>BOND
     1     1    20 1   
     2     1     4 1   
     3     1    11 1   
     4     2    10 1   
     5     2    21 1   
     6     3    15 2   
     7     4    29 1   
     8     4     7 1   
     9     5     1 1   
    10     5    14 1   
    11     6    11 2   
    12     7    31 1   
    13     7    10 1   
    14     8    28 1   
    15     8    27 1   
    16    10     9 2   
    17    11     2 1   
    18    12    13 ar  
    19    13    18 ar  
    20    13    14 1   
    21    14    25 1   
    22    14    26 1   
    23    15    12 1   
    24    15     5 1   
    25    16    17 ar  
    26    17    23 1   
    27    17    18 ar  
    28    18     8 1   
    29    19    16 ar  
    30    19    12 ar  
    31    22    16 1   
    32    24    19 1   
    33    30     4 1   
    34    32     7 1   
@<TRIPOS>SUBSTRUCTURE
     1 LVY         1 TEMP              0 ****  ****    0 ROOT
