@<TRIPOS>MOLECULE
LVY
   32    34     1     0     0
SMALL
bcc


@<TRIPOS>ATOM
      1 C1          80.4070    77.0020    75.7750 c6         1 LVY       0.052700
      2 N1          81.4100    78.2970    77.7550 ns         1 LVY      -0.599500
      3 O1          79.9960    76.0030    73.0480 o          1 LVY      -0.601500
      4 C2          79.0950    77.0160    76.5140 c6         1 LVY      -0.088400
      5 N2          80.6110    75.6220    75.2420 n          1 LVY      -0.468800
      6 O2          82.7360    77.7100    75.9940 o          1 LVY      -0.597500
      7 C3          78.9340    78.1910    77.4850 c6         1 LVY      -0.156400
      8 N3          82.2010    71.6310    76.3860 nv         1 LVY      -0.817200
      9 O3          80.0570    79.4050    79.1980 o          1 LVY      -0.603500
     10 C4          80.1650    78.7090    78.2030 c          1 LVY       0.701500
     11 C5          81.6400    77.6870    76.5190 c          1 LVY       0.671500
     12 C6          80.8320    73.8710    73.7680 ca         1 LVY      -0.112600
     13 C7          81.3480    73.4340    75.0080 ca         1 LVY      -0.148300
     14 C8          81.1930    74.5550    76.0730 c5         1 LVY       0.131300
     15 C9          80.4410    75.2880    73.9290 c          1 LVY       0.720100
     16 C10         81.3790    71.7170    72.7940 ca         1 LVY      -0.106000
     17 C11         81.8490    71.3690    74.0740 ca         1 LVY      -0.158000
     18 C12         81.8230    72.1450    75.1760 ca         1 LVY       0.155600
     19 C13         80.8420    73.0300    72.6440 ca         1 LVY      -0.094000
     20 H1          80.2260    77.7300    74.9720 h1         1 LVY       0.113700
     21 H2          82.1630    78.6150    78.3530 hn         1 LVY       0.339500
     22 H3          81.3780    71.0420    71.9430 ha         1 LVY       0.139000
     23 H4          82.2560    70.3790    74.2590 ha         1 LVY       0.137000
     24 H5          80.4730    73.1980    71.6360 ha         1 LVY       0.156000
     25 H6          82.1570    74.8580    76.5020 h1         1 LVY       0.066700
     26 H7          80.4480    74.2710    76.8270 h1         1 LVY       0.066700
     27 H8          82.1630    72.2030    77.2200 hn         1 LVY       0.394300
     28 H9          82.4240    70.6520    76.5020 hn         1 LVY       0.394300
     29 H10         79.0520    76.0870    77.0980 hc         1 LVY       0.067200
     30 H11         78.2840    76.8320    75.7970 hc         1 LVY       0.067200
     31 H12         78.1540    77.9940    78.2320 hc         1 LVY       0.088700
     32 H13         78.4810    79.0020    76.8980 hc         1 LVY       0.088700
@<TRIPOS>BOND
     1     1    20 1   
     2     1     4 1   
     3     1    11 1   
     4     2    10 1   
     5     2    21 1   
     6     3    15 2   
     7     4    29 1   
     8     4     7 1   
     9     5     1 1   
    10     5    14 1   
    11     6    11 2   
    12     7    10 1   
    13     7    31 1   
    14     8    28 1   
    15     8    27 1   
    16    10     9 2   
    17    11     2 1   
    18    12    15 1   
    19    12    13 ar  
    20    13    18 ar  
    21    13    14 1   
    22    14    25 1   
    23    14    26 1   
    24    15     5 1   
    25    16    17 ar  
    26    17    23 1   
    27    17    18 ar  
    28    18     8 1   
    29    19    16 ar  
    30    19    12 ar  
    31    22    16 1   
    32    24    19 1   
    33    30     4 1   
    34    32     7 1   
@<TRIPOS>SUBSTRUCTURE
     1 LVY         1 TEMP              0 ****  ****    0 ROOT
