@<TRIPOS>MOLECULE
LVY
   32    34     1     0     0
SMALL
bcc


@<TRIPOS>ATOM
      1 C1          77.1810    45.0520    55.2410 c6         1 LVY       0.054700
      2 C2          77.6840    46.0380    56.2260 c6         1 LVY      -0.089400
      3 C3          78.8650    46.7370    55.6150 c6         1 LVY      -0.156400
      4 C4          79.9380    45.7390    55.2970 c          1 LVY       0.701500
      5 N1          79.5920    44.4550    54.8720 ns         1 LVY      -0.599500
      6 C5          78.3000    44.0990    54.5970 c          1 LVY       0.673500
      7 C6          74.2080    43.1600    56.4580 ca         1 LVY      -0.114600
      8 C7          75.1320    42.6940    57.3480 ca         1 LVY      -0.145300
      9 C8          76.4300    43.4390    57.1370 c5         1 LVY       0.131300
     10 N2          76.1640    44.2530    55.8880 n          1 LVY      -0.469800
     11 C9          74.8540    44.0690    55.4200 c          1 LVY       0.721100
     12 C10         72.5270    41.7830    57.5000 ca         1 LVY      -0.107000
     13 C11         73.4520    41.3310    58.3780 ca         1 LVY      -0.157000
     14 C12         74.7590    41.8460    58.4000 ca         1 LVY       0.150600
     15 C13         72.8810    42.6690    56.4640 ca         1 LVY      -0.092000
     16 O1          74.4210    44.5070    54.3740 o          1 LVY      -0.602500
     17 N3          75.6970    41.5590    59.4410 nv         1 LVY      -0.813200
     18 O2          78.0150    43.1280    53.9700 o          1 LVY      -0.604500
     19 O3          81.1220    45.8710    55.5470 o          1 LVY      -0.602500
     20 H1          76.6100    45.5390    54.4410 h1         1 LVY       0.113700
     21 H2          80.3470    43.7820    54.8250 hn         1 LVY       0.338500
     22 H3          71.4930    41.4780    57.6270 ha         1 LVY       0.139000
     23 H4          73.1210    40.6960    59.1950 ha         1 LVY       0.137000
     24 H5          72.1700    42.9120    55.6800 ha         1 LVY       0.156000
     25 H6          77.3250    42.8240    56.9840 h1         1 LVY       0.067700
     26 H7          76.6460    44.0860    57.9950 h1         1 LVY       0.067700
     27 H8          76.6440    41.9010    59.3380 hn         1 LVY       0.392300
     28 H9          75.4730    40.7610    60.0210 hn         1 LVY       0.392300
     29 H10         77.9720    45.5440    57.1610 hc         1 LVY       0.068700
     30 H11         76.9660    46.7940    56.5640 hc         1 LVY       0.068700
     31 H12         79.3380    47.5490    56.1800 hc         1 LVY       0.089700
     32 H13         78.4250    47.0630    54.6650 hc         1 LVY       0.089700
@<TRIPOS>BOND
     1     1    20 1   
     2     1    10 1   
     3     1     2 1   
     4     2    30 1   
     5     2    29 1   
     6     3    31 1   
     7     3     2 1   
     8     4    19 2   
     9     4     3 1   
    10     5     4 1   
    11     6     5 1   
    12     6     1 1   
    13     7    15 ar  
    14     7     8 ar  
    15     8    14 ar  
    16     9     8 1   
    17     9    26 1   
    18    10     9 1   
    19    11    10 1   
    20    11     7 1   
    21    12    22 1   
    22    12    13 ar  
    23    13    14 ar  
    24    13    23 1   
    25    14    17 1   
    26    15    12 ar  
    27    16    11 2   
    28    17    28 1   
    29    18     6 2   
    30    21     5 1   
    31    24    15 1   
    32    25     9 1   
    33    27    17 1   
    34    32     3 1   
@<TRIPOS>SUBSTRUCTURE
     1 LVY         1 TEMP              0 ****  ****    0 ROOT
