@<TRIPOS>MOLECULE
LVY
   32    34     1     0     0
SMALL
bcc


@<TRIPOS>ATOM
      1 C1          81.1730    75.5300    75.2530 c6         1 LVY       0.052700
      2 N1          82.0630    76.7820    77.2640 ns         1 LVY      -0.599500
      3 O1          80.8150    74.5300    72.5210 o          1 LVY      -0.601500
      4 C2          79.8950    75.4380    76.1310 c6         1 LVY      -0.088400
      5 N2          81.4690    74.2250    74.7340 n          1 LVY      -0.468800
      6 O2          83.4770    76.1680    75.7030 o          1 LVY      -0.597500
      7 C3          79.7000    76.7900    76.8800 c6         1 LVY      -0.156400
      8 N3          83.0670    70.4300    76.0440 nv         1 LVY      -0.817200
      9 O3          80.8400    77.8420    78.7540 o          1 LVY      -0.603500
     10 C4          80.8770    77.2340    77.7100 c          1 LVY       0.701500
     11 C5          82.3670    76.2050    76.1000 c          1 LVY       0.671500
     12 C6          81.7230    72.4480    73.4040 ca         1 LVY      -0.112600
     13 C7          82.1120    72.0000    74.6590 ca         1 LVY      -0.148300
     14 C8          81.9150    73.1280    75.6790 c5         1 LVY       0.131300
     15 C9          81.2850    73.8330    73.4360 c          1 LVY       0.720100
     16 C10         82.1450    70.1850    72.4710 ca         1 LVY      -0.106000
     17 C11         82.6060    69.7150    73.7300 ca         1 LVY      -0.158000
     18 C12         82.5840    70.6810    74.8210 ca         1 LVY       0.155600
     19 C13         81.6470    71.4940    72.3460 ca         1 LVY      -0.094000
     20 H1          81.0560    76.2530    74.4350 h1         1 LVY       0.113700
     21 H2          82.7790    76.9280    77.9650 hn         1 LVY       0.339500
     22 H3          82.2000    69.5260    71.6100 ha         1 LVY       0.139000
     23 H4          83.0420    68.7200    73.7350 ha         1 LVY       0.137000
     24 H5          81.1850    71.7520    71.3980 ha         1 LVY       0.156000
     25 H6          82.9000    73.1920    76.1570 h1         1 LVY       0.066700
     26 H7          81.1740    72.8270    76.4310 h1         1 LVY       0.066700
     27 H8          82.7830    70.9630    76.8550 hn         1 LVY       0.394300
     28 H9          83.4290    69.5210    76.3010 hn         1 LVY       0.394300
     29 H10         79.9180    74.6140    76.8560 hc         1 LVY       0.067200
     30 H11         79.0170    75.3480    75.4790 hc         1 LVY       0.067200
     31 H12         78.7940    76.7310    77.4980 hc         1 LVY       0.088700
     32 H13         79.5140    77.5620    76.1220 hc         1 LVY       0.088700
@<TRIPOS>BOND
     1     1    20 1   
     2     1    11 1   
     3     1     4 1   
     4     2    10 1   
     5     2    21 1   
     6     3    15 2   
     7     4    29 1   
     8     4     7 1   
     9     5     1 1   
    10     5    14 1   
    11     6    11 2   
    12     7    31 1   
    13     7    10 1   
    14     8    28 1   
    15     8    27 1   
    16    10     9 2   
    17    11     2 1   
    18    12    15 1   
    19    12    13 ar  
    20    13    18 ar  
    21    13    14 1   
    22    14    25 1   
    23    14    26 1   
    24    15     5 1   
    25    16    17 ar  
    26    17    23 1   
    27    17    18 ar  
    28    18     8 1   
    29    19    16 ar  
    30    19    12 ar  
    31    22    16 1   
    32    24    19 1   
    33    30     4 1   
    34    32     7 1   
@<TRIPOS>SUBSTRUCTURE
     1 LVY         1 TEMP              0 ****  ****    0 ROOT
