@<TRIPOS>MOLECULE
LVY
   32    34     1     0     0
SMALL
bcc


@<TRIPOS>ATOM
      1 C1          81.7270    79.2720    74.6120 c6         1 LVY       0.052700
      2 N1          82.8120    80.7190    76.3970 ns         1 LVY      -0.599500
      3 O1          81.7500    78.0600    71.9410 o          1 LVY      -0.601500
      4 C2          80.4770    79.2580    75.5850 c6         1 LVY      -0.088400
      5 N2          82.0950    77.9120    74.2420 n          1 LVY      -0.468800
      6 O2          84.0200    79.8170    74.7200 o          1 LVY      -0.597500
      7 C3          80.3850    80.6650    76.2880 c6         1 LVY      -0.156400
      8 N3          83.9760    74.3120    75.9200 nv         1 LVY      -0.817200
      9 O3          81.7950    81.8460    77.9350 o          1 LVY      -0.603500
     10 C4          81.6710    81.1770    76.9250 c          1 LVY       0.701500
     11 C5          82.9780    79.9430    75.2520 c          1 LVY       0.671500
     12 C6          82.6840    76.1330    73.0840 ca         1 LVY      -0.112600
     13 C7          82.9560    75.7630    74.3690 ca         1 LVY      -0.148300
     14 C8          82.5910    76.9090    75.2100 c5         1 LVY       0.131300
     15 C9          82.0630    77.4230    72.9570 c          1 LVY       0.720100
     16 C10         83.6790    74.1120    72.2920 ca         1 LVY      -0.106000
     17 C11         84.0150    73.7770    73.6290 ca         1 LVY      -0.158000
     18 C12         83.6340    74.5970    74.6660 ca         1 LVY       0.155600
     19 C13         82.9450    75.2580    72.0350 ca         1 LVY      -0.094000
     20 H1          81.4110    79.8000    73.7020 h1         1 LVY       0.113700
     21 H2          83.6970    80.9100    76.8510 hn         1 LVY       0.339500
     22 H3          84.0200    73.4380    71.5120 ha         1 LVY       0.139000
     23 H4          84.6650    72.9170    73.7560 ha         1 LVY       0.137000
     24 H5          82.5620    75.4530    71.0380 ha         1 LVY       0.156000
     25 H6          83.4950    77.2950    75.6980 h1         1 LVY       0.066700
     26 H7          81.9160    76.5640    76.0030 h1         1 LVY       0.066700
     27 H8          83.5420    74.7720    76.7090 hn         1 LVY       0.394300
     28 H9          84.3600    73.4110    76.1710 hn         1 LVY       0.394300
     29 H10         80.6540    78.4400    76.2960 hc         1 LVY       0.067200
     30 H11         79.5710    79.1690    74.9730 hc         1 LVY       0.067200
     31 H12         79.6430    80.7190    77.0950 hc         1 LVY       0.088700
     32 H13         80.0880    81.4430    75.5720 hc         1 LVY       0.088700
@<TRIPOS>BOND
     1     1    20 1   
     2     1    11 1   
     3     1     4 1   
     4     2    21 1   
     5     2    10 1   
     6     3    15 2   
     7     4     7 1   
     8     4    29 1   
     9     5     1 1   
    10     5    14 1   
    11     6    11 2   
    12     7    10 1   
    13     7    31 1   
    14     8    28 1   
    15     8    27 1   
    16    10     9 2   
    17    11     2 1   
    18    12    13 ar  
    19    13    18 ar  
    20    13    14 1   
    21    14    25 1   
    22    14    26 1   
    23    15    12 1   
    24    15     5 1   
    25    16    17 ar  
    26    17    23 1   
    27    17    18 ar  
    28    18     8 1   
    29    19    16 ar  
    30    19    12 ar  
    31    22    16 1   
    32    24    19 1   
    33    30     4 1   
    34    32     7 1   
@<TRIPOS>SUBSTRUCTURE
     1 LVY         1 TEMP              0 ****  ****    0 ROOT
