@<TRIPOS>MOLECULE
LVY
   32    34     1     0     0
SMALL
bcc


@<TRIPOS>ATOM
      1 C1          79.9130    75.7950    74.7460 c6         1 LVY       0.054700
      2 N1          80.5260    77.0970    76.7830 ns         1 LVY      -0.599500
      3 O1          79.9340    74.7130    71.8990 o          1 LVY      -0.602500
      4 C2          78.5940    75.6290    75.5500 c6         1 LVY      -0.089400
      5 N2          80.4330    74.4850    74.1870 n          1 LVY      -0.469800
      6 O2          82.1410    76.6270    75.3550 o          1 LVY      -0.604500
      7 C3          78.1480    76.9290    76.3090 c6         1 LVY      -0.156400
      8 N3          82.0560    70.5710    75.6070 nv         1 LVY      -0.813200
      9 O3          79.0890    77.9640    78.2830 o          1 LVY      -0.602500
     10 C4          79.2550    77.4390    77.1900 c          1 LVY       0.701500
     11 C5          80.9720    76.5520    75.6470 c          1 LVY       0.673500
     12 C6          80.7020    72.6690    72.9260 ca         1 LVY      -0.114600
     13 C7          81.2590    72.3550    74.1610 ca         1 LVY      -0.145300
     14 C8          81.0350    73.4480    75.1310 c5         1 LVY       0.131300
     15 C9          80.2440    74.0640    72.8680 c          1 LVY       0.721100
     16 C10         81.1680    70.4300    72.1100 ca         1 LVY      -0.107000
     17 C11         81.6900    70.0440    73.3370 ca         1 LVY      -0.157000
     18 C12         81.6990    71.0070    74.3920 ca         1 LVY       0.150600
     19 C13         80.8190    71.7680    71.8290 ca         1 LVY      -0.092000
     20 H1          79.8580    76.5270    73.9290 h1         1 LVY       0.113700
     21 H2          81.3160    77.5000    77.2730 hn         1 LVY       0.338500
     22 H3          81.1630    69.7760    71.2430 ha         1 LVY       0.139000
     23 H4          82.0290    69.0170    73.4260 ha         1 LVY       0.137000
     24 H5          80.6050    72.1320    70.8280 ha         1 LVY       0.156000
     25 H6          81.9990    73.8580    75.4570 h1         1 LVY       0.067700
     26 H7          80.3810    73.0730    75.9280 h1         1 LVY       0.067700
     27 H8          82.2700    71.2040    76.3660 hn         1 LVY       0.392300
     28 H9          82.3760    69.6120    75.6460 hn         1 LVY       0.392300
     29 H10         78.8840    74.9230    76.3390 hc         1 LVY       0.068700
     30 H11         77.8240    75.1220    74.9540 hc         1 LVY       0.068700
     31 H12         77.2110    76.9010    76.8820 hc         1 LVY       0.089700
     32 H13         77.9350    77.7210    75.5790 hc         1 LVY       0.089700
@<TRIPOS>BOND
     1     1    20 1   
     2     1     4 1   
     3     1    11 1   
     4     2    10 1   
     5     2    21 1   
     6     3    15 2   
     7     4     7 1   
     8     4    29 1   
     9     5     1 1   
    10     5    14 1   
    11     6    11 2   
    12     7    31 1   
    13     7    10 1   
    14     8    28 1   
    15     8    27 1   
    16    10     9 2   
    17    11     2 1   
    18    12    13 ar  
    19    13    18 ar  
    20    13    14 1   
    21    14    25 1   
    22    14    26 1   
    23    15    12 1   
    24    15     5 1   
    25    16    17 ar  
    26    17    23 1   
    27    17    18 ar  
    28    18     8 1   
    29    19    16 ar  
    30    19    12 ar  
    31    22    16 1   
    32    24    19 1   
    33    30     4 1   
    34    32     7 1   
@<TRIPOS>SUBSTRUCTURE
     1 LVY         1 TEMP              0 ****  ****    0 ROOT
