@<TRIPOS>MOLECULE
LVY
   32    34     1     0     0
SMALL
bcc


@<TRIPOS>ATOM
      1 C1          81.4480    77.8180    75.6960 c6         1 LVY       0.052700
      2 N1          82.4870    79.1200    77.6330 ns         1 LVY      -0.599500
      3 O1          81.4000    76.9030    72.8680 o          1 LVY      -0.601500
      4 C2          80.1800    77.8580    76.5580 c6         1 LVY      -0.088400
      5 N2          81.8240    76.4880    75.1450 n          1 LVY      -0.468800
      6 O2          83.6990    78.5170    75.9110 o          1 LVY      -0.597500
      7 C3          80.1010    79.1520    77.3910 c6         1 LVY      -0.156400
      8 N3          83.7420    72.6540    76.4260 nv         1 LVY      -0.817200
      9 O3          81.3430    80.2700    79.1540 o          1 LVY      -0.603500
     10 C4          81.3410    79.6520    78.1050 c          1 LVY       0.701500
     11 C5          82.6090    78.5300    76.4420 c          1 LVY       0.671500
     12 C6          82.4150    74.8440    73.7520 ca         1 LVY      -0.112600
     13 C7          82.7740    74.3930    75.0230 ca         1 LVY      -0.148300
     14 C8          82.4420    75.4040    76.0800 c5         1 LVY       0.131300
     15 C9          81.7950    76.1490    73.7900 c          1 LVY       0.720100
     16 C10         83.3750    72.8260    72.8770 ca         1 LVY      -0.106000
     17 C11         83.7370    72.4200    74.1570 ca         1 LVY      -0.158000
     18 C12         83.3670    73.1570    75.2090 ca         1 LVY       0.155600
     19 C13         82.6110    74.0600    72.6410 ca         1 LVY      -0.094000
     20 H1          81.2920    78.4770    74.8310 h1         1 LVY       0.113700
     21 H2          83.3410    79.2280    78.1670 hn         1 LVY       0.339500
     22 H3          83.5940    72.1690    72.0400 ha         1 LVY       0.139000
     23 H4          84.2700    71.4810    74.2690 ha         1 LVY       0.137000
     24 H5          82.4390    74.3160    71.6000 ha         1 LVY       0.156000
     25 H6          83.2900    75.7720    76.6710 h1         1 LVY       0.066700
     26 H7          81.7020    74.9500    76.7500 h1         1 LVY       0.066700
     27 H8          83.3050    72.9360    77.2940 hn         1 LVY       0.394300
     28 H9          84.2700    71.7920    76.4440 hn         1 LVY       0.394300
     29 H10         80.2020    77.0100    77.2550 hc         1 LVY       0.067200
     30 H11         79.3190    77.7340    75.8880 hc         1 LVY       0.067200
     31 H12         79.2770    79.0820    78.1130 hc         1 LVY       0.088700
     32 H13         79.8110    79.8360    76.5830 hc         1 LVY       0.088700
@<TRIPOS>BOND
     1     1    20 1   
     2     1    11 1   
     3     1     4 1   
     4     2    10 1   
     5     2    21 1   
     6     3    15 2   
     7     4    29 1   
     8     4     7 1   
     9     5     1 1   
    10     5    14 1   
    11     6    11 2   
    12     7    10 1   
    13     7    31 1   
    14     8    28 1   
    15     8    27 1   
    16    10     9 2   
    17    11     2 1   
    18    12    15 1   
    19    12    13 ar  
    20    13    18 ar  
    21    13    14 1   
    22    14    25 1   
    23    14    26 1   
    24    15     5 1   
    25    16    17 ar  
    26    17    23 1   
    27    17    18 ar  
    28    18     8 1   
    29    19    16 ar  
    30    19    12 ar  
    31    22    16 1   
    32    24    19 1   
    33    30     4 1   
    34    32     7 1   
@<TRIPOS>SUBSTRUCTURE
     1 LVY         1 TEMP              0 ****  ****    0 ROOT
