@<TRIPOS>MOLECULE
LVY
   32    34     1     0     0
SMALL
bcc


@<TRIPOS>ATOM
      1 C1          78.5720    72.9780    74.6730 c6         1 LVY       0.055700
      2 N1          79.1330    74.3190    76.6510 ns         1 LVY      -0.599500
      3 O1          78.5950    71.4630    72.2870 o          1 LVY      -0.596500
      4 C2          77.0970    73.4590    74.8050 c6         1 LVY      -0.094400
      5 N2          78.7060    71.4980    74.5160 n          1 LVY      -0.481800
      6 O2          80.7940    73.2990    75.5770 o          1 LVY      -0.587500
      7 C3          76.7280    73.9490    76.2600 c6         1 LVY      -0.152400
      8 N3          79.5270    67.8090    76.7520 nv         1 LVY      -0.818200
      9 O3          77.7100    75.0450    78.1720 o          1 LVY      -0.605500
     10 C4          77.8850    74.4490    77.1290 c          1 LVY       0.699500
     11 C5          79.5490    73.5780    75.6560 c          1 LVY       0.675500
     12 C6          78.7750    69.4780    73.5480 ca         1 LVY      -0.112600
     13 C7          79.1310    69.3050    74.9010 ca         1 LVY      -0.156300
     14 C8          79.0160    70.6130    75.7020 c5         1 LVY       0.136300
     15 C9          78.6540    70.8740    73.3070 c          1 LVY       0.718100
     16 C10         78.9260    67.0940    73.2110 ca         1 LVY      -0.104000
     17 C11         79.3180    66.9290    74.5310 ca         1 LVY      -0.159000
     18 C12         79.3340    68.0130    75.4250 ca         1 LVY       0.158600
     19 C13         78.6820    68.3910    72.7080 ca         1 LVY      -0.094000
     20 H1          78.9740    73.4320    73.7570 h1         1 LVY       0.117700
     21 H2          79.8810    74.6090    77.2700 hn         1 LVY       0.337500
     22 H3          78.9220    66.2070    72.5850 ha         1 LVY       0.140000
     23 H4          79.4470    65.9280    74.9320 ha         1 LVY       0.138000
     24 H5          78.5590    68.5000    71.6340 ha         1 LVY       0.157000
     25 H6          79.9490    70.9070    76.1990 h1         1 LVY       0.060200
     26 H7          78.2090    70.7370    76.4350 h1         1 LVY       0.060200
     27 H8          79.6150    68.5540    77.4300 hn         1 LVY       0.396300
     28 H9          79.4580    66.8410    77.0390 hn         1 LVY       0.396300
     29 H10         76.2830    72.7760    74.5300 hc         1 LVY       0.071700
     30 H11         77.0220    74.2370    74.0330 hc         1 LVY       0.071700
     31 H12         76.2840    73.0880    76.7770 hc         1 LVY       0.085700
     32 H13         76.0010    74.7700    76.2050 hc         1 LVY       0.085700
@<TRIPOS>BOND
     1     1    20 1   
     2     1     4 1   
     3     1    11 1   
     4     2    10 1   
     5     2    21 1   
     6     3    15 2   
     7     4     7 1   
     8     5     1 1   
     9     5    14 1   
    10     6    11 2   
    11     7    31 1   
    12     7    10 1   
    13     8    28 1   
    14     8    27 1   
    15    10     9 2   
    16    11     2 1   
    17    12    13 ar  
    18    13    18 ar  
    19    13    14 1   
    20    14    25 1   
    21    14    26 1   
    22    15    12 1   
    23    15     5 1   
    24    16    17 ar  
    25    17    23 1   
    26    17    18 ar  
    27    18     8 1   
    28    19    16 ar  
    29    19    12 ar  
    30    22    16 1   
    31    24    19 1   
    32    29     4 1   
    33    30     4 1   
    34    32     7 1   
@<TRIPOS>SUBSTRUCTURE
     1 LVY         1 TEMP              0 ****  ****    0 ROOT
