@<TRIPOS>MOLECULE
LVY
   32    34     1     0     0
SMALL
bcc


@<TRIPOS>ATOM
      1 C1          80.4890    76.3070    74.7610 c6         1 LVY       0.052700
      2 N1          81.5320    77.3810    76.7540 ns         1 LVY      -0.599500
      3 O1          79.9010    75.5290    71.8870 o          1 LVY      -0.601500
      4 C2          79.2130    76.2640    75.5350 c6         1 LVY      -0.088400
      5 N2          80.6460    75.0310    74.0940 n          1 LVY      -0.468800
      6 O2          82.8700    76.7710    75.0880 o          1 LVY      -0.597500
      7 C3          79.1020    77.5250    76.3660 c6         1 LVY      -0.156400
      8 N3          82.2600    71.0330    74.8380 nv         1 LVY      -0.817200
      9 O3          80.3180    78.3860    78.2160 o          1 LVY      -0.603500
     10 C4          80.3840    77.8690    77.1440 c          1 LVY       0.701500
     11 C5          81.7530    76.7950    75.5290 c          1 LVY       0.671500
     12 C6          80.6990    73.3610    72.5480 ca         1 LVY      -0.112600
     13 C7          81.2010    72.8820    73.6690 ca         1 LVY      -0.148300
     14 C8          81.3510    73.8890    74.7090 c5         1 LVY       0.131300
     15 C9          80.3970    74.7850    72.7200 c          1 LVY       0.720100
     16 C10         80.8270    71.2430    71.4690 ca         1 LVY      -0.106000
     17 C11         81.3530    70.7380    72.6350 ca         1 LVY      -0.158000
     18 C12         81.6290    71.5840    73.6970 ca         1 LVY       0.155600
     19 C13         80.5890    72.5740    71.3520 ca         1 LVY      -0.094000
     20 H1          80.3150    77.1170    74.0400 h1         1 LVY       0.113700
     21 H2          82.3720    77.6210    77.2660 hn         1 LVY       0.339500
     22 H3          80.5370    70.6480    70.6080 ha         1 LVY       0.139000
     23 H4          81.6770    69.7010    72.6480 ha         1 LVY       0.137000
     24 H5          80.2640    73.0830    70.4490 ha         1 LVY       0.156000
     25 H6          82.4260    73.9940    74.9000 h1         1 LVY       0.066700
     26 H7          80.7700    73.5920    75.5910 h1         1 LVY       0.066700
     27 H8          82.2610    71.5110    75.7300 hn         1 LVY       0.394300
     28 H9          82.5930    70.0790    74.8100 hn         1 LVY       0.394300
     29 H10         79.2660    75.4600    76.2810 hc         1 LVY       0.067200
     30 H11         78.3560    76.0220    74.8920 hc         1 LVY       0.067200
     31 H12         78.2990    77.5260    77.1150 hc         1 LVY       0.088700
     32 H13         78.9330    78.3780    75.6960 hc         1 LVY       0.088700
@<TRIPOS>BOND
     1     1    20 1   
     2     1    11 1   
     3     1     4 1   
     4     2    10 1   
     5     2    21 1   
     6     3    15 2   
     7     4    29 1   
     8     4     7 1   
     9     5    14 1   
    10     5     1 1   
    11     6    11 2   
    12     7    31 1   
    13     7    10 1   
    14     8    27 1   
    15    10     9 2   
    16    11     2 1   
    17    12    15 1   
    18    12    13 ar  
    19    13    18 ar  
    20    13    14 1   
    21    14    25 1   
    22    14    26 1   
    23    15     5 1   
    24    16    17 ar  
    25    17    23 1   
    26    17    18 ar  
    27    18     8 1   
    28    19    16 ar  
    29    19    12 ar  
    30    22    16 1   
    31    24    19 1   
    32    28     8 1   
    33    30     4 1   
    34    32     7 1   
@<TRIPOS>SUBSTRUCTURE
     1 LVY         1 TEMP              0 ****  ****    0 ROOT
