@<TRIPOS>MOLECULE
LVY
   32    34     1     0     0
SMALL
bcc


@<TRIPOS>ATOM
      1 C1          82.2730    80.4140    75.7220 c6         1 LVY       0.052700
      2 N1          83.4430    82.0620    77.1250 ns         1 LVY      -0.599500
      3 O1          81.7540    79.5200    72.8400 o          1 LVY      -0.601500
      4 C2          81.2610    80.3060    76.8910 c6         1 LVY      -0.088400
      5 N2          82.5890    79.1230    75.0410 n          1 LVY      -0.468800
      6 O2          84.4530    81.2350    75.2490 o          1 LVY      -0.597500
      7 C3          81.0390    81.6400    77.6110 c6         1 LVY      -0.156400
      8 N3          84.5300    75.4540    76.0810 nv         1 LVY      -0.817200
      9 O3          82.5270    82.8500    78.9800 o          1 LVY      -0.603500
     10 C4          82.3910    82.2520    77.9610 c          1 LVY       0.701500
     11 C5          83.5150    81.2700    76.0330 c          1 LVY       0.671500
     12 C6          82.8470    77.4280    73.5100 ca         1 LVY      -0.112600
     13 C7          83.4630    77.0290    74.7100 ca         1 LVY      -0.148300
     14 C8          83.3770    78.1040    75.7810 c5         1 LVY       0.131300
     15 C9          82.3660    78.7860    73.6700 c          1 LVY       0.720100
     16 C10         83.6590    75.3150    72.5580 ca         1 LVY      -0.106000
     17 C11         84.1630    74.9590    73.7740 ca         1 LVY      -0.158000
     18 C12         84.0130    75.7600    74.8960 ca         1 LVY       0.155600
     19 C13         82.9010    76.5350    72.4300 ca         1 LVY      -0.094000
     20 H1          81.7140    80.9890    74.9720 h1         1 LVY       0.113700
     21 H2          84.2400    82.6430    77.3590 hn         1 LVY       0.339500
     22 H3          83.8430    74.6770    71.6980 ha         1 LVY       0.139000
     23 H4          84.6820    74.0060    73.7870 ha         1 LVY       0.137000
     24 H5          82.4190    76.7340    71.4770 ha         1 LVY       0.156000
     25 H6          84.4030    78.3960    76.0370 h1         1 LVY       0.066700
     26 H7          82.8810    77.7980    76.7100 h1         1 LVY       0.066700
     27 H8          84.3650    76.0420    76.8870 hn         1 LVY       0.394300
     28 H9          84.8490    74.5070    76.2350 hn         1 LVY       0.394300
     29 H10         81.7190    79.6950    77.6790 hc         1 LVY       0.067200
     30 H11         80.3080    79.7910    76.7140 hc         1 LVY       0.067200
     31 H12         80.4040    81.5220    78.4990 hc         1 LVY       0.088700
     32 H13         80.5820    82.2840    76.8480 hc         1 LVY       0.088700
@<TRIPOS>BOND
     1     1    20 1   
     2     1    11 1   
     3     1     4 1   
     4     2    21 1   
     5     2    10 1   
     6     3    15 2   
     7     4     7 1   
     8     4    29 1   
     9     5     1 1   
    10     5    14 1   
    11     6    11 2   
    12     7    10 1   
    13     7    31 1   
    14     8    28 1   
    15     8    27 1   
    16    10     9 2   
    17    11     2 1   
    18    12    15 1   
    19    12    13 ar  
    20    13    18 ar  
    21    13    14 1   
    22    14    25 1   
    23    14    26 1   
    24    15     5 1   
    25    16    17 ar  
    26    17    23 1   
    27    17    18 ar  
    28    18     8 1   
    29    19    16 ar  
    30    19    12 ar  
    31    22    16 1   
    32    24    19 1   
    33    30     4 1   
    34    32     7 1   
@<TRIPOS>SUBSTRUCTURE
     1 LVY         1 TEMP              0 ****  ****    0 ROOT
