@<TRIPOS>MOLECULE
LVY
   32    34     1     0     0
SMALL
bcc


@<TRIPOS>ATOM
      1 C1          79.5900    74.9070    75.1650 c6         1 LVY       0.052700
      2 N1          80.4510    76.3810    76.9440 ns         1 LVY      -0.599500
      3 O1          79.2250    74.3820    72.3350 o          1 LVY      -0.601500
      4 C2          78.4020    74.6680    76.0830 c6         1 LVY      -0.088400
      5 N2          79.8380    73.6420    74.4490 n          1 LVY      -0.468800
      6 O2          81.8860    75.6770    75.2730 o          1 LVY      -0.597500
      7 C3          78.0740    75.9520    76.7630 c6         1 LVY      -0.156400
      8 N3          81.3460    69.4300    74.8710 nv         1 LVY      -0.817200
      9 O3          79.1980    76.9410    78.7150 o          1 LVY      -0.603500
     10 C4          79.2690    76.4740    77.5720 c          1 LVY       0.701500
     11 C5          80.7810    75.6020    75.8460 c          1 LVY       0.671500
     12 C6          79.8470    72.0370    72.8170 ca         1 LVY      -0.112600
     13 C7          80.2960    71.3720    73.9670 ca         1 LVY      -0.148300
     14 C8          80.4540    72.4150    75.0730 c5         1 LVY       0.131300
     15 C9          79.5820    73.4890    73.0670 c          1 LVY       0.720100
     16 C10         79.9220    69.9720    71.4910 ca         1 LVY      -0.106000
     17 C11         80.4930    69.3680    72.6580 ca         1 LVY      -0.158000
     18 C12         80.7320    70.0830    73.8610 ca         1 LVY       0.155600
     19 C13         79.5820    71.3340    71.5970 ca         1 LVY      -0.094000
     20 H1          79.2320    75.6400    74.4290 h1         1 LVY       0.113700
     21 H2          81.2220    76.8810    77.3710 hn         1 LVY       0.339500
     22 H3          79.7010    69.4340    70.5740 ha         1 LVY       0.139000
     23 H4          80.6880    68.3060    72.5430 ha         1 LVY       0.137000
     24 H5          79.1140    71.9080    70.8030 ha         1 LVY       0.156000
     25 H6          81.5090    72.5500    75.3400 h1         1 LVY       0.066700
     26 H7          79.8860    72.1930    75.9850 h1         1 LVY       0.066700
     27 H8          81.2280    69.9150    75.7500 hn         1 LVY       0.394300
     28 H9          81.2830    68.4220    74.9180 hn         1 LVY       0.394300
     29 H10         78.5090    73.8780    76.8380 hc         1 LVY       0.067200
     30 H11         77.6390    74.3150    75.3780 hc         1 LVY       0.067200
     31 H12         77.1510    75.8310    77.3450 hc         1 LVY       0.088700
     32 H13         77.8910    76.7220    76.0020 hc         1 LVY       0.088700
@<TRIPOS>BOND
     1     1    20 1   
     2     1    11 1   
     3     1     4 1   
     4     2    21 1   
     5     2    10 1   
     6     3    15 2   
     7     4     7 1   
     8     4    29 1   
     9     5    14 1   
    10     5     1 1   
    11     6    11 2   
    12     7    31 1   
    13     7    10 1   
    14     8    28 1   
    15     8    27 1   
    16    10     9 2   
    17    11     2 1   
    18    12    15 1   
    19    12    13 ar  
    20    13    14 1   
    21    14    25 1   
    22    14    26 1   
    23    15     5 1   
    24    16    19 ar  
    25    16    17 ar  
    26    17    18 ar  
    27    18    13 ar  
    28    18     8 1   
    29    19    12 ar  
    30    22    16 1   
    31    23    17 1   
    32    24    19 1   
    33    30     4 1   
    34    32     7 1   
@<TRIPOS>SUBSTRUCTURE
     1 LVY         1 TEMP              0 ****  ****    0 ROOT
