@<TRIPOS>MOLECULE
LVY
   32    34     1     0     0
SMALL
bcc


@<TRIPOS>ATOM
      1 C1          81.7070    83.6330    73.9940 c6         1 LVY       0.054700
      2 N1          82.5490    84.8970    75.8700 ns         1 LVY      -0.599500
      3 O1          81.1970    82.4730    71.2540 o          1 LVY      -0.602500
      4 C2          80.3270    83.6540    74.6090 c6         1 LVY      -0.089400
      5 N2          82.0520    82.2660    73.4120 n          1 LVY      -0.469800
      6 O2          84.0630    84.0300    74.5060 o          1 LVY      -0.604500
      7 C3          80.1030    84.8890    75.6190 c6         1 LVY      -0.156400
      8 N3          83.8230    78.4620    74.5100 nv         1 LVY      -0.813200
      9 O3          81.2030    85.5370    77.5420 o          1 LVY      -0.602500
     10 C4          81.3470    85.1790    76.3760 c          1 LVY       0.701500
     11 C5          82.8690    84.1690    74.8200 c          1 LVY       0.673500
     12 C6          82.1530    80.4210    72.0290 ca         1 LVY      -0.114600
     13 C7          82.7750    80.0880    73.1930 ca         1 LVY      -0.145300
     14 C8          82.7350    81.2330    74.1910 c5         1 LVY       0.131300
     15 C9          81.6600    81.7970    72.1810 c          1 LVY       0.721100
     16 C10         82.6370    78.3130    70.9750 ca         1 LVY      -0.107000
     17 C11         83.2260    77.9170    72.1900 ca         1 LVY      -0.157000
     18 C12         83.2660    78.7330    73.2890 ca         1 LVY       0.150600
     19 C13         82.0860    79.6130    70.8840 ca         1 LVY      -0.092000
     20 H1          81.6780    84.3630    73.1740 h1         1 LVY       0.113700
     21 H2          83.3530    85.2350    76.3850 hn         1 LVY       0.338500
     22 H3          82.5350    77.5830    70.1770 ha         1 LVY       0.139000
     23 H4          83.7310    76.9560    72.1460 ha         1 LVY       0.137000
     24 H5          81.8950    79.9710    69.8770 ha         1 LVY       0.156000
     25 H6          83.7360    81.6080    74.4400 h1         1 LVY       0.067700
     26 H7          82.0670    80.9770    75.0230 h1         1 LVY       0.067700
     27 H8          83.8980    79.1440    75.2530 hn         1 LVY       0.392300
     28 H9          84.3460    77.6010    74.6080 hn         1 LVY       0.392300
     29 H10         80.1140    82.6620    75.0290 hc         1 LVY       0.068700
     30 H11         79.5650    83.7250    73.8220 hc         1 LVY       0.068700
     31 H12         79.2000    84.8110    76.2370 hc         1 LVY       0.089700
     32 H13         79.8940    85.7380    74.9550 hc         1 LVY       0.089700
@<TRIPOS>BOND
     1     1    20 1   
     2     1     4 1   
     3     1    11 1   
     4     2    10 1   
     5     2    21 1   
     6     3    15 2   
     7     4    29 1   
     8     4     7 1   
     9     5     1 1   
    10     5    14 1   
    11     6    11 2   
    12     7    31 1   
    13     7    10 1   
    14     8    28 1   
    15     8    27 1   
    16    10     9 2   
    17    11     2 1   
    18    12    15 1   
    19    12    13 ar  
    20    13    18 ar  
    21    13    14 1   
    22    14    25 1   
    23    14    26 1   
    24    15     5 1   
    25    16    17 ar  
    26    17    18 ar  
    27    18     8 1   
    28    19    16 ar  
    29    19    12 ar  
    30    22    16 1   
    31    23    17 1   
    32    24    19 1   
    33    30     4 1   
    34    32     7 1   
@<TRIPOS>SUBSTRUCTURE
     1 LVY         1 TEMP              0 ****  ****    0 ROOT
